
  OWA STORM WATER MANAGEMENT MODEL - VERSION v5.2.3 (OWA 2023-03-28)
  ------------------------------------------------------------

  WARNING 09: time series interval greater than recording interval for Rain Gage Raingage2
  WARNING 01: wet weather time step reduced to recording interval for Rain Gage Raingage2
  
  ****************
  Analysis Options
  ****************
  Flow Units ............... CMS
  Process Models:
    Rainfall/Runoff ........ YES
    RDII ................... NO
    Snowmelt ............... NO
    Groundwater ............ NO
    Flow Routing ........... NO
    Water Quality .......... NO
  Infiltration Method ...... MODIFIED_GREEN_AMPT
  Starting Date ............ 06/17/2022 00:00:00
  Ending Date .............. 06/17/2022 12:00:00
  Antecedent Dry Days ...... 0.0
  Report Time Step ......... 00:15:00
  Wet Time Step ............ 00:01:00
  Dry Time Step ............ 01:00:00
  
  
  **************************        Volume         Depth
  Runoff Quantity Continuity     hectare-m            mm
  **************************     ---------       -------
  Total Precipitation ......         0.319         0.317
  Evaporation Loss .........         0.000         0.000
  Infiltration Loss ........         0.245         0.243
  Surface Runoff ...........         0.048         0.047
  Final Storage ............         0.026         0.026
  Continuity Error (%) .....        -0.025
  
  
  **************************        Volume        Volume
  Flow Routing Continuity        hectare-m      10^6 ltr
  **************************     ---------     ---------
  Dry Weather Inflow .......         0.000         0.000
  Wet Weather Inflow .......         0.048         0.478
  Groundwater Inflow .......         0.000         0.000
  RDII Inflow ..............         0.000         0.000
  External Inflow ..........         0.000         0.000
  External Outflow .........         0.048         0.478
  Flooding Loss ............         0.000         0.000
  Evaporation Loss .........         0.000         0.000
  Exfiltration Loss ........         0.000         0.000
  Initial Stored Volume ....         0.000         0.000
  Final Stored Volume ......         0.000         0.000
  Continuity Error (%) .....         0.000
  
  
  ***************************
  Subcatchment Runoff Summary
  ***************************
  
  ------------------------------------------------------------------------------------------------------------------------------
                            Total      Total      Total      Total     Imperv       Perv      Total       Total     Peak  Runoff
                           Precip      Runon       Evap      Infil     Runoff     Runoff     Runoff      Runoff   Runoff   Coeff
  Subcatchment                 mm         mm         mm         mm         mm         mm         mm    10^6 ltr      CMS
  ------------------------------------------------------------------------------------------------------------------------------
  S1                         0.32       0.00       0.00       0.25       0.04       0.00       0.04        0.00     0.00   0.140
  S2                         0.32       0.00       0.00       0.17       0.13       0.00       0.13        0.00     0.00   0.403
  S3                         0.32       0.00       0.00       0.30       0.00       0.00       0.00        0.00     0.00   0.005
  S4                         0.32       0.00       0.00       0.27       0.00       0.00       0.00        0.00     0.00   0.007
  S5                         0.32       0.00       0.00       0.25       0.05       0.00       0.05        0.00     0.00   0.158
  S6                         0.32       0.00       0.00       0.29       0.00       0.00       0.00        0.00     0.00   0.010
  S7                         0.32       0.00       0.00       0.30       0.00       0.00       0.00        0.00     0.00   0.005
  S8                         0.32       0.00       0.00       0.27       0.00       0.00       0.00        0.00     0.00   0.007
  S9                         0.32       0.00       0.00       0.17       0.13       0.00       0.13        0.00     0.00   0.404
  S10                        0.32       0.00       0.00       0.17       0.13       0.00       0.13        0.00     0.00   0.404
  S11                        0.32       0.00       0.00       0.22       0.08       0.00       0.08        0.00     0.00   0.239
  S12                        0.32       0.00       0.00       0.30       0.00       0.00       0.00        0.00     0.00   0.005
  S13                        0.32       0.00       0.00       0.29       0.00       0.00       0.00        0.00     0.00   0.010
  S14                        0.32       0.00       0.00       0.31       0.00       0.00       0.00        0.00     0.00   0.002
  S15                        0.32       0.00       0.00       0.17       0.13       0.00       0.13        0.00     0.00   0.403
  S16                        0.32       0.00       0.00       0.22       0.08       0.00       0.08        0.00     0.00   0.240
  S17                        0.32       0.00       0.00       0.27       0.00       0.00       0.00        0.00     0.00   0.007
  S18                        0.32       0.00       0.00       0.30       0.00       0.00       0.00        0.00     0.00   0.005
  S19                        0.32       0.00       0.00       0.25       0.05       0.00       0.05        0.00     0.00   0.158
  S20                        0.32       0.00       0.00       0.17       0.13       0.00       0.13        0.00     0.00   0.405
  S21                        0.32       0.00       0.00       0.28       0.00       0.00       0.00        0.00     0.00   0.010
  S22                        0.32       0.00       0.00       0.28       0.00       0.00       0.00        0.00     0.00   0.010
  S23                        0.32       0.00       0.00       0.25       0.05       0.00       0.05        0.00     0.00   0.158
  S24                        0.32       0.00       0.00       0.11       0.17       0.00       0.17        0.00     0.00   0.522
  S25                        0.32       0.00       0.00       0.25       0.05       0.00       0.05        0.00     0.00   0.161
  S26                        0.32       0.00       0.00       0.22       0.08       0.00       0.08        0.00     0.00   0.241
  S27                        0.32       0.00       0.00       0.22       0.08       0.00       0.08        0.00     0.00   0.240
  S28                        0.32       0.00       0.00       0.27       0.00       0.00       0.00        0.00     0.00   0.007
  S29                        0.32       0.00       0.00       0.30       0.00       0.00       0.00        0.00     0.00   0.005
  S30                        0.32       0.00       0.00       0.17       0.13       0.00       0.13        0.00     0.00   0.404
  S31                        0.32       0.00       0.00       0.17       0.13       0.00       0.13        0.00     0.00   0.407
  S32                        0.32       0.00       0.00       0.29       0.00       0.00       0.00        0.00     0.00   0.010
  S33                        0.32       0.00       0.00       0.17       0.13       0.00       0.13        0.00     0.00   0.404
  S34                        0.32       0.00       0.00       0.28       0.00       0.00       0.00        0.00     0.00   0.010
  S35                        0.32       0.00       0.00       0.11       0.16       0.00       0.16        0.00     0.00   0.520
  S36                        0.32       0.00       0.00       0.25       0.05       0.00       0.05        0.00     0.00   0.157
  S37                        0.32       0.00       0.00       0.27       0.00       0.00       0.00        0.00     0.00   0.007
  S38                        0.32       0.00       0.00       0.27       0.00       0.00       0.00        0.00     0.00   0.007
  S39                        0.32       0.00       0.00       0.31       0.00       0.00       0.00        0.00     0.00   0.002
  S40                        0.32       0.00       0.00       0.17       0.13       0.00       0.13        0.00     0.00   0.405
  S41                        0.32       0.00       0.00       0.29       0.00       0.00       0.00        0.00     0.00   0.010
  S42                        0.32       0.00       0.00       0.11       0.16       0.00       0.16        0.00     0.00   0.520
  S43                        0.32       0.00       0.00       0.17       0.13       0.00       0.13        0.00     0.00   0.401
  S44                        0.32       0.00       0.00       0.27       0.00       0.00       0.00        0.00     0.00   0.007
  S45                        0.32       0.00       0.00       0.22       0.08       0.00       0.08        0.00     0.00   0.240
  S46                        0.32       0.00       0.00       0.27       0.00       0.00       0.00        0.00     0.00   0.007
  S47                        0.32       0.00       0.00       0.25       0.05       0.00       0.05        0.00     0.00   0.158
  S48                        0.32       0.00       0.00       0.30       0.00       0.00       0.00        0.00     0.00   0.005
  S49                        0.32       0.00       0.00       0.17       0.13       0.00       0.13        0.00     0.00   0.404
  S50                        0.32       0.00       0.00       0.25       0.05       0.00       0.05        0.00     0.00   0.157
  S51                        0.32       0.00       0.00       0.11       0.16       0.00       0.16        0.00     0.00   0.521
  S52                        0.32       0.00       0.00       0.29       0.00       0.00       0.00        0.00     0.00   0.010
  S53                        0.32       0.00       0.00       0.31       0.00       0.00       0.00        0.00     0.00   0.002
  S54                        0.32       0.00       0.00       0.22       0.08       0.00       0.08        0.00     0.00   0.241
  S55                        0.32       0.00       0.00       0.30       0.00       0.00       0.00        0.00     0.00   0.005
  S56                        0.32       0.00       0.00       0.27       0.00       0.00       0.00        0.00     0.00   0.007
  S57                        0.32       0.00       0.00       0.28       0.00       0.00       0.00        0.00     0.00   0.010
  S58                        0.32       0.00       0.00       0.25       0.05       0.00       0.05        0.00     0.00   0.158
  S59                        0.32       0.00       0.00       0.29       0.00       0.00       0.00        0.00     0.00   0.010
  S60                        0.32       0.00       0.00       0.31       0.00       0.00       0.00        0.00     0.00   0.002
  S61                        0.32       0.00       0.00       0.27       0.00       0.00       0.00        0.00     0.00   0.007
  S62                        0.32       0.00       0.00       0.27       0.00       0.00       0.00        0.00     0.00   0.007
  S63                        0.32       0.00       0.00       0.25       0.05       0.00       0.05        0.00     0.00   0.161
  S64                        0.32       0.00       0.00       0.28       0.00       0.00       0.00        0.00     0.00   0.010
  S65                        0.32       0.00       0.00       0.31       0.00       0.00       0.00        0.00     0.00   0.002
  S66                        0.32       0.00       0.00       0.29       0.00       0.00       0.00        0.00     0.00   0.010
  S67                        0.32       0.00       0.00       0.22       0.08       0.00       0.08        0.00     0.00   0.240
  S68                        0.32       0.00       0.00       0.28       0.00       0.00       0.00        0.00     0.00   0.010
  S69                        0.32       0.00       0.00       0.17       0.13       0.00       0.13        0.00     0.00   0.403
  S70                        0.32       0.00       0.00       0.11       0.16       0.00       0.16        0.00     0.00   0.520
  S71                        0.32       0.00       0.00       0.27       0.00       0.00       0.00        0.00     0.00   0.007
  S72                        0.32       0.00       0.00       0.17       0.13       0.00       0.13        0.00     0.00   0.406
  S73                        0.32       0.00       0.00       0.30       0.00       0.00       0.00        0.00     0.00   0.005
  S74                        0.32       0.00       0.00       0.05       0.21       0.00       0.21        0.00     0.00   0.668
  S75                        0.32       0.00       0.00       0.17       0.13       0.00       0.13        0.00     0.00   0.405
  S76                        0.32       0.00       0.00       0.05       0.21       0.00       0.21        0.00     0.00   0.665
  S77                        0.32       0.00       0.00       0.27       0.00       0.00       0.00        0.00     0.00   0.007
  S78                        0.32       0.00       0.00       0.27       0.00       0.00       0.00        0.00     0.00   0.007
  S79                        0.32       0.00       0.00       0.17       0.13       0.00       0.13        0.00     0.00   0.406
  S80                        0.32       0.00       0.00       0.27       0.00       0.00       0.00        0.00     0.00   0.007
  S81                        0.32       0.00       0.00       0.29       0.00       0.00       0.00        0.00     0.00   0.010
  S82                        0.32       0.00       0.00       0.25       0.05       0.00       0.05        0.00     0.00   0.158
  S83                        0.32       0.00       0.00       0.11       0.16       0.00       0.16        0.00     0.00   0.520
  S84                        0.32       0.00       0.00       0.17       0.13       0.00       0.13        0.00     0.00   0.405
  S85                        0.32       0.00       0.00       0.05       0.21       0.00       0.21        0.00     0.00   0.667
  S86                        0.32       0.00       0.00       0.30       0.00       0.00       0.00        0.00     0.00   0.005
  S87                        0.32       0.00       0.00       0.22       0.08       0.00       0.08        0.00     0.00   0.240
  S88                        0.32       0.00       0.00       0.30       0.00       0.00       0.00        0.00     0.00   0.005
  S89                        0.32       0.00       0.00       0.25       0.05       0.00       0.05        0.00     0.00   0.157
  S90                        0.32       0.00       0.00       0.29       0.00       0.00       0.00        0.00     0.00   0.010
  S91                        0.32       0.00       0.00       0.29       0.00       0.00       0.00        0.00     0.00   0.010
  S92                        0.32       0.00       0.00       0.30       0.00       0.00       0.00        0.00     0.00   0.005
  S93                        0.32       0.00       0.00       0.05       0.21       0.00       0.21        0.00     0.00   0.670
  S94                        0.32       0.00       0.00       0.30       0.00       0.00       0.00        0.00     0.00   0.005
  S95                        0.32       0.00       0.00       0.29       0.00       0.00       0.00        0.00     0.00   0.010
  S96                        0.32       0.00       0.00       0.28       0.00       0.00       0.00        0.00     0.00   0.010
  S97                        0.32       0.00       0.00       0.30       0.00       0.00       0.00        0.00     0.00   0.005
  S98                        0.32       0.00       0.00       0.17       0.13       0.00       0.13        0.00     0.00   0.404
  S99                        0.32       0.00       0.00       0.11       0.16       0.00       0.16        0.00     0.00   0.520
  S100                       0.32       0.00       0.00       0.17       0.13       0.00       0.13        0.00     0.00   0.404
  S101                       0.32       0.00       0.00       0.25       0.05       0.00       0.05        0.00     0.00   0.158
  S102                       0.32       0.00       0.00       0.25       0.05       0.00       0.05        0.00     0.00   0.157
  S103                       0.32       0.00       0.00       0.30       0.00       0.00       0.00        0.00     0.00   0.005
  S104                       0.32       0.00       0.00       0.29       0.00       0.00       0.00        0.00     0.00   0.010
  S105                       0.32       0.00       0.00       0.29       0.00       0.00       0.00        0.00     0.00   0.010
  S106                       0.32       0.00       0.00       0.31       0.00       0.00       0.00        0.00     0.00   0.002
  S107                       0.32       0.00       0.00       0.17       0.13       0.00       0.13        0.00     0.00   0.402
  S108                       0.32       0.00       0.00       0.27       0.00       0.00       0.00        0.00     0.00   0.007
  S109                       0.32       0.00       0.00       0.27       0.00       0.00       0.00        0.00     0.00   0.007
  S110                       0.32       0.00       0.00       0.28       0.00       0.00       0.00        0.00     0.00   0.010
  S111                       0.32       0.00       0.00       0.25       0.05       0.00       0.05        0.00     0.00   0.157
  S112                       0.32       0.00       0.00       0.22       0.08       0.00       0.08        0.00     0.00   0.240
  S113                       0.32       0.00       0.00       0.27       0.00       0.00       0.00        0.00     0.00   0.007
  S114                       0.32       0.00       0.00       0.30       0.00       0.00       0.00        0.00     0.00   0.005
  S115                       0.32       0.00       0.00       0.11       0.16       0.00       0.16        0.00     0.00   0.520
  S116                       0.32       0.00       0.00       0.31       0.00       0.00       0.00        0.00     0.00   0.002
  S117                       0.32       0.00       0.00       0.25       0.05       0.00       0.05        0.00     0.00   0.157
  S118                       0.32       0.00       0.00       0.30       0.00       0.00       0.00        0.00     0.00   0.005
  S119                       0.32       0.00       0.00       0.05       0.21       0.00       0.21        0.00     0.00   0.668
  S120                       0.32       0.00       0.00       0.27       0.00       0.00       0.00        0.00     0.00   0.007
  S121                       0.32       0.00       0.00       0.29       0.00       0.00       0.00        0.00     0.00   0.010
  S122                       0.32       0.00       0.00       0.25       0.05       0.00       0.05        0.00     0.00   0.158
  S123                       0.32       0.00       0.00       0.25       0.05       0.00       0.05        0.00     0.00   0.158
  S124                       0.32       0.00       0.00       0.29       0.00       0.00       0.00        0.00     0.00   0.010
  S125                       0.32       0.00       0.00       0.30       0.00       0.00       0.00        0.00     0.00   0.005
  S126                       0.32       0.00       0.00       0.17       0.13       0.00       0.13        0.00     0.00   0.405
  S127                       0.32       0.00       0.00       0.30       0.00       0.00       0.00        0.00     0.00   0.005
  S128                       0.32       0.00       0.00       0.25       0.05       0.00       0.05        0.00     0.00   0.157
  S129                       0.32       0.00       0.00       0.30       0.00       0.00       0.00        0.00     0.00   0.005
  S130                       0.32       0.00       0.00       0.31       0.00       0.00       0.00        0.00     0.00   0.002
  S131                       0.32       0.00       0.00       0.29       0.00       0.00       0.00        0.00     0.00   0.010
  S132                       0.32       0.00       0.00       0.31       0.00       0.00       0.00        0.00     0.00   0.002
  S133                       0.32       0.00       0.00       0.27       0.00       0.00       0.00        0.00     0.00   0.007
  S134                       0.32       0.00       0.00       0.27       0.00       0.00       0.00        0.00     0.00   0.007
  S135                       0.32       0.00       0.00       0.27       0.00       0.00       0.00        0.00     0.00   0.007
  S136                       0.32       0.00       0.00       0.27       0.00       0.00       0.00        0.00     0.00   0.007
  S137                       0.32       0.00       0.00       0.22       0.08       0.00       0.08        0.00     0.00   0.240
  S138                       0.32       0.00       0.00       0.30       0.00       0.00       0.00        0.00     0.00   0.005
  S139                       0.32       0.00       0.00       0.11       0.16       0.00       0.16        0.00     0.00   0.521
  S140                       0.32       0.00       0.00       0.31       0.00       0.00       0.00        0.00     0.00   0.002
  S141                       0.32       0.00       0.00       0.30       0.00       0.00       0.00        0.00     0.00   0.005
  S142                       0.32       0.00       0.00       0.22       0.08       0.00       0.08        0.00     0.00   0.240
  S143                       0.32       0.00       0.00       0.27       0.00       0.00       0.00        0.00     0.00   0.007
  S144                       0.32       0.00       0.00       0.27       0.00       0.00       0.00        0.00     0.00   0.007
  S145                       0.32       0.00       0.00       0.30       0.00       0.00       0.00        0.00     0.00   0.005
  S146                       0.32       0.00       0.00       0.27       0.00       0.00       0.00        0.00     0.00   0.007
  S147                       0.32       0.00       0.00       0.25       0.05       0.00       0.05        0.00     0.00   0.158
  S148                       0.32       0.00       0.00       0.27       0.00       0.00       0.00        0.00     0.00   0.007
  S149                       0.32       0.00       0.00       0.25       0.05       0.00       0.05        0.00     0.00   0.159
  S150                       0.32       0.00       0.00       0.25       0.05       0.00       0.05        0.00     0.00   0.158
  S151                       0.32       0.00       0.00       0.25       0.05       0.00       0.05        0.00     0.00   0.158
  S152                       0.32       0.00       0.00       0.29       0.00       0.00       0.00        0.00     0.00   0.010
  S153                       0.32       0.00       0.00       0.27       0.00       0.00       0.00        0.00     0.00   0.007
  S154                       0.32       0.00       0.00       0.22       0.08       0.00       0.08        0.00     0.00   0.241
  S155                       0.32       0.00       0.00       0.22       0.08       0.00       0.08        0.00     0.00   0.241
  S156                       0.32       0.00       0.00       0.22       0.08       0.00       0.08        0.00     0.00   0.240
  S157                       0.32       0.00       0.00       0.31       0.00       0.00       0.00        0.00     0.00   0.002
  S158                       0.32       0.00       0.00       0.29       0.00       0.00       0.00        0.00     0.00   0.010
  S159                       0.32       0.00       0.00       0.27       0.00       0.00       0.00        0.00     0.00   0.007
  S160                       0.32       0.00       0.00       0.30       0.00       0.00       0.00        0.00     0.00   0.005
  S161                       0.32       0.00       0.00       0.25       0.05       0.00       0.05        0.00     0.00   0.158
  S162                       0.32       0.00       0.00       0.27       0.00       0.00       0.00        0.00     0.00   0.007
  S163                       0.32       0.00       0.00       0.29       0.00       0.00       0.00        0.00     0.00   0.010
  S164                       0.32       0.00       0.00       0.27       0.00       0.00       0.00        0.00     0.00   0.007
  S165                       0.32       0.00       0.00       0.30       0.00       0.00       0.00        0.00     0.00   0.005
  S166                       0.32       0.00       0.00       0.27       0.00       0.00       0.00        0.00     0.00   0.007
  S167                       0.32       0.00       0.00       0.29       0.00       0.00       0.00        0.00     0.00   0.010
  S168                       0.32       0.00       0.00       0.29       0.00       0.00       0.00        0.00     0.00   0.010
  S169                       0.32       0.00       0.00       0.25       0.05       0.00       0.05        0.00     0.00   0.157
  S170                       0.32       0.00       0.00       0.29       0.00       0.00       0.00        0.00     0.00   0.010
  S171                       0.32       0.00       0.00       0.25       0.05       0.00       0.05        0.00     0.00   0.158
  S172                       0.32       0.00       0.00       0.27       0.00       0.00       0.00        0.00     0.00   0.007
  S173                       0.32       0.00       0.00       0.27       0.00       0.00       0.00        0.00     0.00   0.007
  S174                       0.32       0.00       0.00       0.05       0.21       0.00       0.21        0.00     0.00   0.667
  S175                       0.32       0.00       0.00       0.22       0.08       0.00       0.08        0.00     0.00   0.240
  S176                       0.32       0.00       0.00       0.17       0.13       0.00       0.13        0.00     0.00   0.405
  S177                       0.32       0.00       0.00       0.28       0.00       0.00       0.00        0.00     0.00   0.010
  S178                       0.32       0.00       0.00       0.25       0.05       0.00       0.05        0.00     0.00   0.158
  S179                       0.32       0.00       0.00       0.31       0.00       0.00       0.00        0.00     0.00   0.002
  S180                       0.32       0.00       0.00       0.30       0.00       0.00       0.00        0.00     0.00   0.005
  S181                       0.32       0.00       0.00       0.30       0.00       0.00       0.00        0.00     0.00   0.005
  S182                       0.32       0.00       0.00       0.30       0.00       0.00       0.00        0.00     0.00   0.005
  S183                       0.32       0.00       0.00       0.28       0.00       0.00       0.00        0.00     0.00   0.010
  S184                       0.32       0.00       0.00       0.11       0.16       0.00       0.16        0.00     0.00   0.521
  S185                       0.32       0.00       0.00       0.22       0.08       0.00       0.08        0.00     0.00   0.240
  S186                       0.32       0.00       0.00       0.27       0.00       0.00       0.00        0.00     0.00   0.007
  S187                       0.32       0.00       0.00       0.28       0.00       0.00       0.00        0.00     0.00   0.010
  S188                       0.32       0.00       0.00       0.29       0.00       0.00       0.00        0.00     0.00   0.010
  S189                       0.32       0.00       0.00       0.29       0.00       0.00       0.00        0.00     0.00   0.010
  S190                       0.32       0.00       0.00       0.30       0.00       0.00       0.00        0.00     0.00   0.005
  S191                       0.32       0.00       0.00       0.29       0.00       0.00       0.00        0.00     0.00   0.010
  S192                       0.32       0.00       0.00       0.27       0.00       0.00       0.00        0.00     0.00   0.007
  S193                       0.32       0.00       0.00       0.30       0.00       0.00       0.00        0.00     0.00   0.005
  S194                       0.32       0.00       0.00       0.31       0.00       0.00       0.00        0.00     0.00   0.002
  S195                       0.32       0.00       0.00       0.29       0.00       0.00       0.00        0.00     0.00   0.010
  S196                       0.32       0.00       0.00       0.28       0.00       0.00       0.00        0.00     0.00   0.010
  S197                       0.32       0.00       0.00       0.17       0.13       0.00       0.13        0.00     0.00   0.404
  S198                       0.32       0.00       0.00       0.27       0.00       0.00       0.00        0.00     0.00   0.007
  S199                       0.32       0.00       0.00       0.27       0.00       0.00       0.00        0.00     0.00   0.007
  S200                       0.32       0.00       0.00       0.28       0.00       0.00       0.00        0.00     0.00   0.010
  S201                       0.32       0.00       0.00       0.30       0.00       0.00       0.00        0.00     0.00   0.005
  S202                       0.32       0.00       0.00       0.25       0.05       0.00       0.05        0.00     0.00   0.157
  S203                       0.32       0.00       0.00       0.22       0.08       0.00       0.08        0.00     0.00   0.239
  S204                       0.32       0.00       0.00       0.11       0.16       0.00       0.16        0.00     0.00   0.521
  S205                       0.32       0.00       0.00       0.27       0.00       0.00       0.00        0.00     0.00   0.007
  S206                       0.32       0.00       0.00       0.30       0.00       0.00       0.00        0.00     0.00   0.005
  S207                       0.32       0.00       0.00       0.30       0.00       0.00       0.00        0.00     0.00   0.005
  S208                       0.32       0.00       0.00       0.30       0.00       0.00       0.00        0.00     0.00   0.005
  S209                       0.32       0.00       0.00       0.05       0.21       0.00       0.21        0.00     0.00   0.668
  S210                       0.32       0.00       0.00       0.30       0.00       0.00       0.00        0.00     0.00   0.005
  S211                       0.32       0.00       0.00       0.05       0.21       0.00       0.21        0.00     0.00   0.666
  S212                       0.32       0.00       0.00       0.27       0.00       0.00       0.00        0.00     0.00   0.007
  S213                       0.32       0.00       0.00       0.28       0.00       0.00       0.00        0.00     0.00   0.010
  S214                       0.32       0.00       0.00       0.27       0.00       0.00       0.00        0.00     0.00   0.007
  S215                       0.32       0.00       0.00       0.11       0.17       0.00       0.17        0.00     0.00   0.521
  S216                       0.32       0.00       0.00       0.11       0.16       0.00       0.16        0.00     0.00   0.520
  S217                       0.32       0.00       0.00       0.28       0.00       0.00       0.00        0.00     0.00   0.010
  S218                       0.32       0.00       0.00       0.25       0.05       0.00       0.05        0.00     0.00   0.158
  S219                       0.32       0.00       0.00       0.29       0.00       0.00       0.00        0.00     0.00   0.010
  S220                       0.32       0.00       0.00       0.22       0.08       0.00       0.08        0.00     0.00   0.239
  S221                       0.32       0.00       0.00       0.17       0.13       0.00       0.13        0.00     0.00   0.405
  S222                       0.32       0.00       0.00       0.22       0.08       0.00       0.08        0.00     0.00   0.241
  S223                       0.32       0.00       0.00       0.30       0.00       0.00       0.00        0.00     0.00   0.005
  S224                       0.32       0.00       0.00       0.17       0.13       0.00       0.13        0.00     0.00   0.403
  S225                       0.32       0.00       0.00       0.28       0.00       0.00       0.00        0.00     0.00   0.010
  S226                       0.32       0.00       0.00       0.27       0.00       0.00       0.00        0.00     0.00   0.007
  S227                       0.32       0.00       0.00       0.31       0.00       0.00       0.00        0.00     0.00   0.002
  S228                       0.32       0.00       0.00       0.25       0.05       0.00       0.05        0.00     0.00   0.158
  S229                       0.32       0.00       0.00       0.25       0.05       0.00       0.05        0.00     0.00   0.158
  S230                       0.32       0.00       0.00       0.27       0.00       0.00       0.00        0.00     0.00   0.007
  S231                       0.32       0.00       0.00       0.25       0.05       0.00       0.05        0.00     0.00   0.158
  S232                       0.32       0.00       0.00       0.22       0.08       0.00       0.08        0.00     0.00   0.240
  S233                       0.32       0.00       0.00       0.30       0.00       0.00       0.00        0.00     0.00   0.005
  S234                       0.32       0.00       0.00       0.28       0.00       0.00       0.00        0.00     0.00   0.010
  S235                       0.32       0.00       0.00       0.22       0.08       0.00       0.08        0.00     0.00   0.240
  S236                       0.32       0.00       0.00       0.25       0.05       0.00       0.05        0.00     0.00   0.159
  S237                       0.32       0.00       0.00       0.17       0.13       0.00       0.13        0.00     0.00   0.406
  S238                       0.32       0.00       0.00       0.29       0.00       0.00       0.00        0.00     0.00   0.010
  S239                       0.32       0.00       0.00       0.25       0.05       0.00       0.05        0.00     0.00   0.158
  S240                       0.32       0.00       0.00       0.11       0.16       0.00       0.16        0.00     0.00   0.521
  S241                       0.32       0.00       0.00       0.17       0.13       0.00       0.13        0.00     0.00   0.405
  S242                       0.32       0.00       0.00       0.29       0.00       0.00       0.00        0.00     0.00   0.010
  S243                       0.32       0.00       0.00       0.28       0.00       0.00       0.00        0.00     0.00   0.010
  S244                       0.32       0.00       0.00       0.30       0.00       0.00       0.00        0.00     0.00   0.005
  S245                       0.32       0.00       0.00       0.30       0.00       0.00       0.00        0.00     0.00   0.005
  S246                       0.32       0.00       0.00       0.05       0.21       0.00       0.21        0.00     0.00   0.665
  S247                       0.32       0.00       0.00       0.22       0.08       0.00       0.08        0.00     0.00   0.240
  S248                       0.32       0.00       0.00       0.27       0.00       0.00       0.00        0.00     0.00   0.007
  S249                       0.32       0.00       0.00       0.29       0.00       0.00       0.00        0.00     0.00   0.010
  S250                       0.32       0.00       0.00       0.28       0.00       0.00       0.00        0.00     0.00   0.010
  S251                       0.32       0.00       0.00       0.27       0.00       0.00       0.00        0.00     0.00   0.007
  S252                       0.32       0.00       0.00       0.30       0.00       0.00       0.00        0.00     0.00   0.005
  S253                       0.32       0.00       0.00       0.22       0.08       0.00       0.08        0.00     0.00   0.239
  S254                       0.32       0.00       0.00       0.30       0.00       0.00       0.00        0.00     0.00   0.005
  S255                       0.32       0.00       0.00       0.17       0.13       0.00       0.13        0.00     0.00   0.405
  S256                       0.32       0.00       0.00       0.30       0.00       0.00       0.00        0.00     0.00   0.005
  S257                       0.32       0.00       0.00       0.27       0.00       0.00       0.00        0.00     0.00   0.007
  S258                       0.32       0.00       0.00       0.30       0.00       0.00       0.00        0.00     0.00   0.005
  S259                       0.32       0.00       0.00       0.22       0.08       0.00       0.08        0.00     0.00   0.241
  S260                       0.32       0.00       0.00       0.27       0.00       0.00       0.00        0.00     0.00   0.007
  S261                       0.32       0.00       0.00       0.17       0.13       0.00       0.13        0.00     0.00   0.402
  S262                       0.32       0.00       0.00       0.22       0.08       0.00       0.08        0.00     0.00   0.240
  S263                       0.32       0.00       0.00       0.30       0.00       0.00       0.00        0.00     0.00   0.005
  S264                       0.32       0.00       0.00       0.05       0.21       0.00       0.21        0.00     0.00   0.665
  S265                       0.32       0.00       0.00       0.29       0.00       0.00       0.00        0.00     0.00   0.010
  S266                       0.32       0.00       0.00       0.22       0.08       0.00       0.08        0.00     0.00   0.240
  S267                       0.32       0.00       0.00       0.28       0.00       0.00       0.00        0.00     0.00   0.010
  S268                       0.32       0.00       0.00       0.28       0.00       0.00       0.00        0.00     0.00   0.010
  S269                       0.32       0.00       0.00       0.30       0.00       0.00       0.00        0.00     0.00   0.005
  S270                       0.32       0.00       0.00       0.29       0.00       0.00       0.00        0.00     0.00   0.010
  S271                       0.32       0.00       0.00       0.17       0.13       0.00       0.13        0.00     0.00   0.401
  S272                       0.32       0.00       0.00       0.27       0.00       0.00       0.00        0.00     0.00   0.007
  S273                       0.32       0.00       0.00       0.28       0.00       0.00       0.00        0.00     0.00   0.010
  S274                       0.32       0.00       0.00       0.27       0.00       0.00       0.00        0.00     0.00   0.007
  S275                       0.32       0.00       0.00       0.25       0.05       0.00       0.05        0.00     0.00   0.159
  S276                       0.32       0.00       0.00       0.17       0.13       0.00       0.13        0.00     0.00   0.404
  S277                       0.32       0.00       0.00       0.27       0.00       0.00       0.00        0.00     0.00   0.007
  S278                       0.32       0.00       0.00       0.27       0.00       0.00       0.00        0.00     0.00   0.007
  S279                       0.32       0.00       0.00       0.29       0.00       0.00       0.00        0.00     0.00   0.010
  S280                       0.32       0.00       0.00       0.30       0.00       0.00       0.00        0.00     0.00   0.005
  S281                       0.32       0.00       0.00       0.11       0.17       0.00       0.17        0.00     0.00   0.523
  S282                       0.32       0.00       0.00       0.28       0.00       0.00       0.00        0.00     0.00   0.010
  S283                       0.32       0.00       0.00       0.05       0.21       0.00       0.21        0.00     0.00   0.665
  S284                       0.32       0.00       0.00       0.29       0.00       0.00       0.00        0.00     0.00   0.010
  S285                       0.32       0.00       0.00       0.29       0.00       0.00       0.00        0.00     0.00   0.010
  S286                       0.32       0.00       0.00       0.22       0.08       0.00       0.08        0.00     0.00   0.240
  S287                       0.32       0.00       0.00       0.27       0.00       0.00       0.00        0.00     0.00   0.007
  S288                       0.32       0.00       0.00       0.22       0.08       0.00       0.08        0.00     0.00   0.241
  S289                       0.32       0.00       0.00       0.28       0.00       0.00       0.00        0.00     0.00   0.010
  S290                       0.32       0.00       0.00       0.30       0.00       0.00       0.00        0.00     0.00   0.005
  S291                       0.32       0.00       0.00       0.30       0.00       0.00       0.00        0.00     0.00   0.005
  S292                       0.32       0.00       0.00       0.22       0.08       0.00       0.08        0.00     0.00   0.240
  S293                       0.32       0.00       0.00       0.27       0.00       0.00       0.00        0.00     0.00   0.007
  S294                       0.32       0.00       0.00       0.25       0.05       0.00       0.05        0.00     0.00   0.158
  S295                       0.32       0.00       0.00       0.05       0.21       0.00       0.21        0.00     0.00   0.666
  S296                       0.32       0.00       0.00       0.27       0.00       0.00       0.00        0.00     0.00   0.007
  S297                       0.32       0.00       0.00       0.27       0.00       0.00       0.00        0.00     0.00   0.007
  S298                       0.32       0.00       0.00       0.30       0.00       0.00       0.00        0.00     0.00   0.005
  S299                       0.32       0.00       0.00       0.25       0.05       0.00       0.05        0.00     0.00   0.157
  S300                       0.32       0.00       0.00       0.22       0.08       0.00       0.08        0.00     0.00   0.239
  S301                       0.32       0.00       0.00       0.22       0.08       0.00       0.08        0.00     0.00   0.242
  S302                       0.32       0.00       0.00       0.29       0.00       0.00       0.00        0.00     0.00   0.010
  S303                       0.32       0.00       0.00       0.30       0.00       0.00       0.00        0.00     0.00   0.005
  S304                       0.32       0.00       0.00       0.28       0.00       0.00       0.00        0.00     0.00   0.010
  S305                       0.32       0.00       0.00       0.29       0.00       0.00       0.00        0.00     0.00   0.010
  S306                       0.32       0.00       0.00       0.28       0.00       0.00       0.00        0.00     0.00   0.010
  S307                       0.32       0.00       0.00       0.29       0.00       0.00       0.00        0.00     0.00   0.010
  S308                       0.32       0.00       0.00       0.22       0.08       0.00       0.08        0.00     0.00   0.240
  S309                       0.32       0.00       0.00       0.17       0.13       0.00       0.13        0.00     0.00   0.406
  S310                       0.32       0.00       0.00       0.22       0.08       0.00       0.08        0.00     0.00   0.240
  S311                       0.32       0.00       0.00       0.28       0.00       0.00       0.00        0.00     0.00   0.010
  S312                       0.32       0.00       0.00       0.28       0.00       0.00       0.00        0.00     0.00   0.010
  S313                       0.32       0.00       0.00       0.22       0.08       0.00       0.08        0.00     0.00   0.240
  S314                       0.32       0.00       0.00       0.17       0.13       0.00       0.13        0.00     0.00   0.404
  S315                       0.32       0.00       0.00       0.27       0.00       0.00       0.00        0.00     0.00   0.007
  S316                       0.32       0.00       0.00       0.30       0.00       0.00       0.00        0.00     0.00   0.005
  S317                       0.32       0.00       0.00       0.30       0.00       0.00       0.00        0.00     0.00   0.005
  S318                       0.32       0.00       0.00       0.30       0.00       0.00       0.00        0.00     0.00   0.005
  S319                       0.32       0.00       0.00       0.17       0.13       0.00       0.13        0.00     0.00   0.404
  S320                       0.32       0.00       0.00       0.25       0.05       0.00       0.05        0.00     0.00   0.158
  S321                       0.32       0.00       0.00       0.27       0.00       0.00       0.00        0.00     0.00   0.007
  S322                       0.32       0.00       0.00       0.30       0.00       0.00       0.00        0.00     0.00   0.005
  S323                       0.32       0.00       0.00       0.27       0.00       0.00       0.00        0.00     0.00   0.007
  S324                       0.32       0.00       0.00       0.22       0.08       0.00       0.08        0.00     0.00   0.240
  S325                       0.32       0.00       0.00       0.28       0.00       0.00       0.00        0.00     0.00   0.010
  S326                       0.32       0.00       0.00       0.25       0.05       0.00       0.05        0.00     0.00   0.158
  S327                       0.32       0.00       0.00       0.22       0.08       0.00       0.08        0.00     0.00   0.240
  S328                       0.32       0.00       0.00       0.25       0.05       0.00       0.05        0.00     0.00   0.158
  S329                       0.32       0.00       0.00       0.22       0.08       0.00       0.08        0.00     0.00   0.240
  S330                       0.32       0.00       0.00       0.28       0.00       0.00       0.00        0.00     0.00   0.010
  S331                       0.32       0.00       0.00       0.28       0.00       0.00       0.00        0.00     0.00   0.010
  S332                       0.32       0.00       0.00       0.25       0.05       0.00       0.05        0.00     0.00   0.157
  S333                       0.32       0.00       0.00       0.22       0.08       0.00       0.08        0.00     0.00   0.239
  S334                       0.32       0.00       0.00       0.22       0.08       0.00       0.08        0.00     0.00   0.240
  S335                       0.32       0.00       0.00       0.30       0.00       0.00       0.00        0.00     0.00   0.005
  S336                       0.32       0.00       0.00       0.22       0.08       0.00       0.08        0.00     0.00   0.240
  S337                       0.32       0.00       0.00       0.29       0.00       0.00       0.00        0.00     0.00   0.010
  S338                       0.32       0.00       0.00       0.05       0.21       0.00       0.21        0.00     0.00   0.666
  S339                       0.32       0.00       0.00       0.29       0.00       0.00       0.00        0.00     0.00   0.010
  S340                       0.32       0.00       0.00       0.28       0.00       0.00       0.00        0.00     0.00   0.010
  S341                       0.32       0.00       0.00       0.30       0.00       0.00       0.00        0.00     0.00   0.005
  S342                       0.32       0.00       0.00       0.05       0.21       0.00       0.21        0.00     0.00   0.666
  S343                       0.32       0.00       0.00       0.22       0.08       0.00       0.08        0.00     0.00   0.240
  S344                       0.32       0.00       0.00       0.25       0.05       0.00       0.05        0.00     0.00   0.158
  S345                       0.32       0.00       0.00       0.29       0.00       0.00       0.00        0.00     0.00   0.010
  S346                       0.32       0.00       0.00       0.29       0.00       0.00       0.00        0.00     0.00   0.010
  S347                       0.32       0.00       0.00       0.29       0.00       0.00       0.00        0.00     0.00   0.010
  S348                       0.32       0.00       0.00       0.30       0.00       0.00       0.00        0.00     0.00   0.005
  S349                       0.32       0.00       0.00       0.31       0.00       0.00       0.00        0.00     0.00   0.002
  S350                       0.32       0.00       0.00       0.28       0.00       0.00       0.00        0.00     0.00   0.010
  S351                       0.32       0.00       0.00       0.22       0.08       0.00       0.08        0.00     0.00   0.239
  S352                       0.32       0.00       0.00       0.30       0.00       0.00       0.00        0.00     0.00   0.005
  S353                       0.32       0.00       0.00       0.27       0.00       0.00       0.00        0.00     0.00   0.007
  S354                       0.32       0.00       0.00       0.29       0.00       0.00       0.00        0.00     0.00   0.010
  S355                       0.32       0.00       0.00       0.22       0.08       0.00       0.08        0.00     0.00   0.240
  S356                       0.32       0.00       0.00       0.29       0.00       0.00       0.00        0.00     0.00   0.010
  S357                       0.32       0.00       0.00       0.28       0.00       0.00       0.00        0.00     0.00   0.010
  S358                       0.32       0.00       0.00       0.30       0.00       0.00       0.00        0.00     0.00   0.005
  S359                       0.32       0.00       0.00       0.29       0.00       0.00       0.00        0.00     0.00   0.010
  S360                       0.32       0.00       0.00       0.28       0.00       0.00       0.00        0.00     0.00   0.010
  S361                       0.32       0.00       0.00       0.28       0.00       0.00       0.00        0.00     0.00   0.010
  S362                       0.32       0.00       0.00       0.28       0.00       0.00       0.00        0.00     0.00   0.010
  S363                       0.32       0.00       0.00       0.29       0.00       0.00       0.00        0.00     0.00   0.010
  S364                       0.32       0.00       0.00       0.31       0.00       0.00       0.00        0.00     0.00   0.002
  S365                       0.32       0.00       0.00       0.28       0.00       0.00       0.00        0.00     0.00   0.010
  S366                       0.32       0.00       0.00       0.31       0.00       0.00       0.00        0.00     0.00   0.002
  S367                       0.32       0.00       0.00       0.29       0.00       0.00       0.00        0.00     0.00   0.010
  S368                       0.32       0.00       0.00       0.31       0.00       0.00       0.00        0.00     0.00   0.002
  S369                       0.32       0.00       0.00       0.11       0.16       0.00       0.16        0.00     0.00   0.520
  S370                       0.32       0.00       0.00       0.17       0.13       0.00       0.13        0.00     0.00   0.404
  S371                       0.32       0.00       0.00       0.22       0.08       0.00       0.08        0.00     0.00   0.241
  S372                       0.32       0.00       0.00       0.29       0.00       0.00       0.00        0.00     0.00   0.010
  S373                       0.32       0.00       0.00       0.05       0.21       0.00       0.21        0.00     0.00   0.665
  S374                       0.32       0.00       0.00       0.17       0.13       0.00       0.13        0.00     0.00   0.407
  S375                       0.32       0.00       0.00       0.22       0.08       0.00       0.08        0.00     0.00   0.241
  S376                       0.32       0.00       0.00       0.11       0.16       0.00       0.16        0.00     0.00   0.520
  S377                       0.32       0.00       0.00       0.29       0.00       0.00       0.00        0.00     0.00   0.010
  S378                       0.32       0.00       0.00       0.29       0.00       0.00       0.00        0.00     0.00   0.010
  S379                       0.32       0.00       0.00       0.27       0.00       0.00       0.00        0.00     0.00   0.007
  S380                       0.32       0.00       0.00       0.25       0.05       0.00       0.05        0.00     0.00   0.158
  S381                       0.32       0.00       0.00       0.29       0.00       0.00       0.00        0.00     0.00   0.010
  S382                       0.32       0.00       0.00       0.25       0.05       0.00       0.05        0.00     0.00   0.157
  S383                       0.32       0.00       0.00       0.27       0.00       0.00       0.00        0.00     0.00   0.007
  S384                       0.32       0.00       0.00       0.22       0.08       0.00       0.08        0.00     0.00   0.240
  S385                       0.32       0.00       0.00       0.30       0.00       0.00       0.00        0.00     0.00   0.005
  S386                       0.32       0.00       0.00       0.17       0.13       0.00       0.13        0.00     0.00   0.403
  S387                       0.32       0.00       0.00       0.29       0.00       0.00       0.00        0.00     0.00   0.010
  S388                       0.32       0.00       0.00       0.28       0.00       0.00       0.00        0.00     0.00   0.010
  S389                       0.32       0.00       0.00       0.30       0.00       0.00       0.00        0.00     0.00   0.005
  S390                       0.32       0.00       0.00       0.17       0.13       0.00       0.13        0.00     0.00   0.404
  S391                       0.32       0.00       0.00       0.31       0.00       0.00       0.00        0.00     0.00   0.002
  S392                       0.32       0.00       0.00       0.27       0.00       0.00       0.00        0.00     0.00   0.007
  S393                       0.32       0.00       0.00       0.28       0.00       0.00       0.00        0.00     0.00   0.010
  S394                       0.32       0.00       0.00       0.17       0.13       0.00       0.13        0.00     0.00   0.402
  S395                       0.32       0.00       0.00       0.05       0.21       0.00       0.21        0.00     0.00   0.668
  S396                       0.32       0.00       0.00       0.25       0.05       0.00       0.05        0.00     0.00   0.159
  S397                       0.32       0.00       0.00       0.27       0.00       0.00       0.00        0.00     0.00   0.007
  S398                       0.32       0.00       0.00       0.22       0.08       0.00       0.08        0.00     0.00   0.241
  S399                       0.32       0.00       0.00       0.27       0.00       0.00       0.00        0.00     0.00   0.007
  S400                       0.32       0.00       0.00       0.29       0.00       0.00       0.00        0.00     0.00   0.010
  S401                       0.32       0.00       0.00       0.22       0.08       0.00       0.08        0.00     0.00   0.239
  S402                       0.32       0.00       0.00       0.30       0.00       0.00       0.00        0.00     0.00   0.005
  S403                       0.32       0.00       0.00       0.17       0.13       0.00       0.13        0.00     0.00   0.404
  S404                       0.32       0.00       0.00       0.25       0.05       0.00       0.05        0.00     0.00   0.158
  S405                       0.32       0.00       0.00       0.17       0.13       0.00       0.13        0.00     0.00   0.405
  S406                       0.32       0.00       0.00       0.28       0.00       0.00       0.00        0.00     0.00   0.010
  S407                       0.32       0.00       0.00       0.27       0.00       0.00       0.00        0.00     0.00   0.007
  S408                       0.32       0.00       0.00       0.27       0.00       0.00       0.00        0.00     0.00   0.007
  S409                       0.32       0.00       0.00       0.29       0.00       0.00       0.00        0.00     0.00   0.010
  S410                       0.32       0.00       0.00       0.27       0.00       0.00       0.00        0.00     0.00   0.007
  S411                       0.32       0.00       0.00       0.28       0.00       0.00       0.00        0.00     0.00   0.010
  S412                       0.32       0.00       0.00       0.29       0.00       0.00       0.00        0.00     0.00   0.010
  S413                       0.32       0.00       0.00       0.28       0.00       0.00       0.00        0.00     0.00   0.010
  S414                       0.32       0.00       0.00       0.28       0.00       0.00       0.00        0.00     0.00   0.010
  S415                       0.32       0.00       0.00       0.25       0.05       0.00       0.05        0.00     0.00   0.158
  S416                       0.32       0.00       0.00       0.17       0.13       0.00       0.13        0.00     0.00   0.405
  S417                       0.32       0.00       0.00       0.22       0.08       0.00       0.08        0.00     0.00   0.239
  S418                       0.32       0.00       0.00       0.29       0.00       0.00       0.00        0.00     0.00   0.010
  S419                       0.32       0.00       0.00       0.25       0.05       0.00       0.05        0.00     0.00   0.158
  S420                       0.32       0.00       0.00       0.11       0.16       0.00       0.16        0.00     0.00   0.520
  S421                       0.32       0.00       0.00       0.25       0.05       0.00       0.05        0.00     0.00   0.158
  S422                       0.32       0.00       0.00       0.22       0.08       0.00       0.08        0.00     0.00   0.240
  S423                       0.32       0.00       0.00       0.25       0.05       0.00       0.05        0.00     0.00   0.157
  S424                       0.32       0.00       0.00       0.29       0.00       0.00       0.00        0.00     0.00   0.010
  S425                       0.32       0.00       0.00       0.29       0.00       0.00       0.00        0.00     0.00   0.010
  S426                       0.32       0.00       0.00       0.17       0.13       0.00       0.13        0.00     0.00   0.402
  S427                       0.32       0.00       0.00       0.27       0.00       0.00       0.00        0.00     0.00   0.007
  S428                       0.32       0.00       0.00       0.27       0.00       0.00       0.00        0.00     0.00   0.007
  S429                       0.32       0.00       0.00       0.27       0.00       0.00       0.00        0.00     0.00   0.007
  S430                       0.32       0.00       0.00       0.22       0.08       0.00       0.08        0.00     0.00   0.240
  S431                       0.32       0.00       0.00       0.27       0.00       0.00       0.00        0.00     0.00   0.007
  S432                       0.32       0.00       0.00       0.22       0.08       0.00       0.08        0.00     0.00   0.239
  S433                       0.32       0.00       0.00       0.27       0.00       0.00       0.00        0.00     0.00   0.007
  S434                       0.32       0.00       0.00       0.29       0.00       0.00       0.00        0.00     0.00   0.010
  S435                       0.32       0.00       0.00       0.11       0.16       0.00       0.16        0.00     0.00   0.520
  S436                       0.32       0.00       0.00       0.28       0.00       0.00       0.00        0.00     0.00   0.010
  S437                       0.32       0.00       0.00       0.28       0.00       0.00       0.00        0.00     0.00   0.010
  S438                       0.32       0.00       0.00       0.22       0.08       0.00       0.08        0.00     0.00   0.242
  S439                       0.32       0.00       0.00       0.17       0.13       0.00       0.13        0.00     0.00   0.405
  S440                       0.32       0.00       0.00       0.30       0.00       0.00       0.00        0.00     0.00   0.005
  S441                       0.32       0.00       0.00       0.22       0.08       0.00       0.08        0.00     0.00   0.240
  S442                       0.32       0.00       0.00       0.27       0.00       0.00       0.00        0.00     0.00   0.007
  S443                       0.32       0.00       0.00       0.29       0.00       0.00       0.00        0.00     0.00   0.010
  S444                       0.32       0.00       0.00       0.28       0.00       0.00       0.00        0.00     0.00   0.010
  S445                       0.32       0.00       0.00       0.30       0.00       0.00       0.00        0.00     0.00   0.005
  S446                       0.32       0.00       0.00       0.30       0.00       0.00       0.00        0.00     0.00   0.005
  S447                       0.32       0.00       0.00       0.30       0.00       0.00       0.00        0.00     0.00   0.005
  S448                       0.32       0.00       0.00       0.28       0.00       0.00       0.00        0.00     0.00   0.010
  S449                       0.32       0.00       0.00       0.28       0.00       0.00       0.00        0.00     0.00   0.010
  S450                       0.32       0.00       0.00       0.17       0.13       0.00       0.13        0.00     0.00   0.403
  S451                       0.32       0.00       0.00       0.31       0.00       0.00       0.00        0.00     0.00   0.002
  S452                       0.32       0.00       0.00       0.31       0.00       0.00       0.00        0.00     0.00   0.002
  S453                       0.32       0.00       0.00       0.30       0.00       0.00       0.00        0.00     0.00   0.005
  S454                       0.32       0.00       0.00       0.17       0.13       0.00       0.13        0.00     0.00   0.404
  S455                       0.32       0.00       0.00       0.17       0.13       0.00       0.13        0.00     0.00   0.406
  S456                       0.32       0.00       0.00       0.29       0.00       0.00       0.00        0.00     0.00   0.010
  S457                       0.32       0.00       0.00       0.29       0.00       0.00       0.00        0.00     0.00   0.010
  S458                       0.32       0.00       0.00       0.27       0.00       0.00       0.00        0.00     0.00   0.007
  S459                       0.32       0.00       0.00       0.31       0.00       0.00       0.00        0.00     0.00   0.002
  S460                       0.32       0.00       0.00       0.25       0.05       0.00       0.05        0.00     0.00   0.158
  S461                       0.32       0.00       0.00       0.28       0.00       0.00       0.00        0.00     0.00   0.010
  S462                       0.32       0.00       0.00       0.29       0.00       0.00       0.00        0.00     0.00   0.010
  S463                       0.32       0.00       0.00       0.28       0.00       0.00       0.00        0.00     0.00   0.010
  S464                       0.32       0.00       0.00       0.11       0.17       0.00       0.17        0.00     0.00   0.521
  S465                       0.32       0.00       0.00       0.17       0.13       0.00       0.13        0.00     0.00   0.406
  S466                       0.32       0.00       0.00       0.29       0.00       0.00       0.00        0.00     0.00   0.010
  S467                       0.32       0.00       0.00       0.30       0.00       0.00       0.00        0.00     0.00   0.005
  S468                       0.32       0.00       0.00       0.29       0.00       0.00       0.00        0.00     0.00   0.010
  S469                       0.32       0.00       0.00       0.29       0.00       0.00       0.00        0.00     0.00   0.010
  S470                       0.32       0.00       0.00       0.05       0.21       0.00       0.21        0.00     0.00   0.666
  S471                       0.32       0.00       0.00       0.31       0.00       0.00       0.00        0.00     0.00   0.002
  S472                       0.32       0.00       0.00       0.30       0.00       0.00       0.00        0.00     0.00   0.005
  S473                       0.32       0.00       0.00       0.31       0.00       0.00       0.00        0.00     0.00   0.002
  S474                       0.32       0.00       0.00       0.30       0.00       0.00       0.00        0.00     0.00   0.005
  S475                       0.32       0.00       0.00       0.17       0.13       0.00       0.13        0.00     0.00   0.407
  S476                       0.32       0.00       0.00       0.28       0.00       0.00       0.00        0.00     0.00   0.010
  S477                       0.32       0.00       0.00       0.25       0.05       0.00       0.05        0.00     0.00   0.157
  S478                       0.32       0.00       0.00       0.29       0.00       0.00       0.00        0.00     0.00   0.010
  S479                       0.32       0.00       0.00       0.27       0.00       0.00       0.00        0.00     0.00   0.007
  S480                       0.32       0.00       0.00       0.27       0.00       0.00       0.00        0.00     0.00   0.007
  S481                       0.32       0.00       0.00       0.30       0.00       0.00       0.00        0.00     0.00   0.005
  S482                       0.32       0.00       0.00       0.25       0.05       0.00       0.05        0.00     0.00   0.158
  S483                       0.32       0.00       0.00       0.17       0.13       0.00       0.13        0.00     0.00   0.403
  S484                       0.32       0.00       0.00       0.22       0.08       0.00       0.08        0.00     0.00   0.240
  S485                       0.32       0.00       0.00       0.05       0.21       0.00       0.21        0.00     0.00   0.668
  S486                       0.32       0.00       0.00       0.30       0.00       0.00       0.00        0.00     0.00   0.005
  S487                       0.32       0.00       0.00       0.27       0.00       0.00       0.00        0.00     0.00   0.007
  S488                       0.32       0.00       0.00       0.30       0.00       0.00       0.00        0.00     0.00   0.005
  S489                       0.32       0.00       0.00       0.25       0.05       0.00       0.05        0.00     0.00   0.157
  S490                       0.32       0.00       0.00       0.29       0.00       0.00       0.00        0.00     0.00   0.010
  S491                       0.32       0.00       0.00       0.30       0.00       0.00       0.00        0.00     0.00   0.005
  S492                       0.32       0.00       0.00       0.29       0.00       0.00       0.00        0.00     0.00   0.010
  S493                       0.32       0.00       0.00       0.30       0.00       0.00       0.00        0.00     0.00   0.005
  S494                       0.32       0.00       0.00       0.25       0.05       0.00       0.05        0.00     0.00   0.158
  S495                       0.32       0.00       0.00       0.31       0.00       0.00       0.00        0.00     0.00   0.002
  S496                       0.32       0.00       0.00       0.11       0.16       0.00       0.16        0.00     0.00   0.520
  S497                       0.32       0.00       0.00       0.25       0.05       0.00       0.05        0.00     0.00   0.158
  S498                       0.32       0.00       0.00       0.29       0.00       0.00       0.00        0.00     0.00   0.010
  S499                       0.32       0.00       0.00       0.31       0.00       0.00       0.00        0.00     0.00   0.002
  S500                       0.32       0.00       0.00       0.27       0.00       0.00       0.00        0.00     0.00   0.007
  S501                       0.32       0.00       0.00       0.29       0.00       0.00       0.00        0.00     0.00   0.010
  S502                       0.32       0.00       0.00       0.17       0.13       0.00       0.13        0.00     0.00   0.406
  S503                       0.32       0.00       0.00       0.29       0.00       0.00       0.00        0.00     0.00   0.010
  S504                       0.32       0.00       0.00       0.11       0.16       0.00       0.16        0.00     0.00   0.520
  S505                       0.32       0.00       0.00       0.31       0.00       0.00       0.00        0.00     0.00   0.002
  S506                       0.32       0.00       0.00       0.11       0.17       0.00       0.17        0.00     0.00   0.526
  S507                       0.32       0.00       0.00       0.28       0.00       0.00       0.00        0.00     0.00   0.010
  S508                       0.32       0.00       0.00       0.29       0.00       0.00       0.00        0.00     0.00   0.010
  S509                       0.32       0.00       0.00       0.30       0.00       0.00       0.00        0.00     0.00   0.005
  S510                       0.32       0.00       0.00       0.11       0.16       0.00       0.16        0.00     0.00   0.520
  S511                       0.32       0.00       0.00       0.22       0.08       0.00       0.08        0.00     0.00   0.239
  S512                       0.32       0.00       0.00       0.17       0.13       0.00       0.13        0.00     0.00   0.404
  S513                       0.32       0.00       0.00       0.30       0.00       0.00       0.00        0.00     0.00   0.005
  S514                       0.32       0.00       0.00       0.29       0.00       0.00       0.00        0.00     0.00   0.010
  S515                       0.32       0.00       0.00       0.22       0.08       0.00       0.08        0.00     0.00   0.240
  S516                       0.32       0.00       0.00       0.27       0.00       0.00       0.00        0.00     0.00   0.007
  S517                       0.32       0.00       0.00       0.30       0.00       0.00       0.00        0.00     0.00   0.005
  S518                       0.32       0.00       0.00       0.29       0.00       0.00       0.00        0.00     0.00   0.010
  S519                       0.32       0.00       0.00       0.11       0.16       0.00       0.16        0.00     0.00   0.521
  S520                       0.32       0.00       0.00       0.30       0.00       0.00       0.00        0.00     0.00   0.005
  S521                       0.32       0.00       0.00       0.27       0.00       0.00       0.00        0.00     0.00   0.007
  S522                       0.32       0.00       0.00       0.28       0.00       0.00       0.00        0.00     0.00   0.010
  S523                       0.32       0.00       0.00       0.30       0.00       0.00       0.00        0.00     0.00   0.005
  S524                       0.32       0.00       0.00       0.17       0.13       0.00       0.13        0.00     0.00   0.405
  S525                       0.32       0.00       0.00       0.28       0.00       0.00       0.00        0.00     0.00   0.010
  S526                       0.32       0.00       0.00       0.27       0.00       0.00       0.00        0.00     0.00   0.007
  S527                       0.32       0.00       0.00       0.29       0.00       0.00       0.00        0.00     0.00   0.010
  S528                       0.32       0.00       0.00       0.27       0.00       0.00       0.00        0.00     0.00   0.007
  S529                       0.32       0.00       0.00       0.28       0.00       0.00       0.00        0.00     0.00   0.010
  S530                       0.32       0.00       0.00       0.29       0.00       0.00       0.00        0.00     0.00   0.010
  S531                       0.32       0.00       0.00       0.28       0.00       0.00       0.00        0.00     0.00   0.010
  S532                       0.32       0.00       0.00       0.30       0.00       0.00       0.00        0.00     0.00   0.005
  S533                       0.32       0.00       0.00       0.28       0.00       0.00       0.00        0.00     0.00   0.010
  S534                       0.32       0.00       0.00       0.27       0.00       0.00       0.00        0.00     0.00   0.007
  S535                       0.32       0.00       0.00       0.17       0.13       0.00       0.13        0.00     0.00   0.405
  S536                       0.32       0.00       0.00       0.27       0.00       0.00       0.00        0.00     0.00   0.007
  S537                       0.32       0.00       0.00       0.05       0.21       0.00       0.21        0.00     0.00   0.666
  S538                       0.32       0.00       0.00       0.25       0.05       0.00       0.05        0.00     0.00   0.158
  S539                       0.32       0.00       0.00       0.25       0.05       0.00       0.05        0.00     0.00   0.159
  S540                       0.32       0.00       0.00       0.25       0.05       0.00       0.05        0.00     0.00   0.158
  S541                       0.32       0.00       0.00       0.29       0.00       0.00       0.00        0.00     0.00   0.010
  S542                       0.32       0.00       0.00       0.27       0.00       0.00       0.00        0.00     0.00   0.007
  S543                       0.32       0.00       0.00       0.27       0.00       0.00       0.00        0.00     0.00   0.007
  S544                       0.32       0.00       0.00       0.27       0.00       0.00       0.00        0.00     0.00   0.007
  S545                       0.32       0.00       0.00       0.28       0.00       0.00       0.00        0.00     0.00   0.010
  S546                       0.32       0.00       0.00       0.28       0.00       0.00       0.00        0.00     0.00   0.010
  S547                       0.32       0.00       0.00       0.25       0.05       0.00       0.05        0.00     0.00   0.162
  S548                       0.32       0.00       0.00       0.17       0.13       0.00       0.13        0.00     0.00   0.405
  S549                       0.32       0.00       0.00       0.17       0.13       0.00       0.13        0.00     0.00   0.403
  S550                       0.32       0.00       0.00       0.11       0.16       0.00       0.16        0.00     0.00   0.521
  S551                       0.32       0.00       0.00       0.29       0.00       0.00       0.00        0.00     0.00   0.010
  S552                       0.32       0.00       0.00       0.11       0.17       0.00       0.17        0.00     0.00   0.526
  S553                       0.32       0.00       0.00       0.27       0.00       0.00       0.00        0.00     0.00   0.007
  S554                       0.32       0.00       0.00       0.11       0.16       0.00       0.16        0.00     0.00   0.520
  S555                       0.32       0.00       0.00       0.28       0.00       0.00       0.00        0.00     0.00   0.010
  S556                       0.32       0.00       0.00       0.11       0.17       0.00       0.17        0.00     0.00   0.522
  S557                       0.32       0.00       0.00       0.27       0.00       0.00       0.00        0.00     0.00   0.007
  S558                       0.32       0.00       0.00       0.29       0.00       0.00       0.00        0.00     0.00   0.010
  S559                       0.32       0.00       0.00       0.25       0.05       0.00       0.05        0.00     0.00   0.160
  S560                       0.32       0.00       0.00       0.27       0.00       0.00       0.00        0.00     0.00   0.007
  S561                       0.32       0.00       0.00       0.30       0.00       0.00       0.00        0.00     0.00   0.005
  S562                       0.32       0.00       0.00       0.30       0.00       0.00       0.00        0.00     0.00   0.005
  S563                       0.32       0.00       0.00       0.25       0.05       0.00       0.05        0.00     0.00   0.158
  S564                       0.32       0.00       0.00       0.28       0.00       0.00       0.00        0.00     0.00   0.010
  S565                       0.32       0.00       0.00       0.30       0.00       0.00       0.00        0.00     0.00   0.005
  S566                       0.32       0.00       0.00       0.29       0.00       0.00       0.00        0.00     0.00   0.010
  S567                       0.32       0.00       0.00       0.31       0.00       0.00       0.00        0.00     0.00   0.002
  S568                       0.32       0.00       0.00       0.30       0.00       0.00       0.00        0.00     0.00   0.005
  S569                       0.32       0.00       0.00       0.27       0.00       0.00       0.00        0.00     0.00   0.007
  S570                       0.32       0.00       0.00       0.31       0.00       0.00       0.00        0.00     0.00   0.002
  S571                       0.32       0.00       0.00       0.30       0.00       0.00       0.00        0.00     0.00   0.005
  S572                       0.32       0.00       0.00       0.25       0.05       0.00       0.05        0.00     0.00   0.158
  S573                       0.32       0.00       0.00       0.17       0.13       0.00       0.13        0.00     0.00   0.404
  S574                       0.32       0.00       0.00       0.17       0.13       0.00       0.13        0.00     0.00   0.404
  S575                       0.32       0.00       0.00       0.11       0.16       0.00       0.16        0.00     0.00   0.520
  S576                       0.32       0.00       0.00       0.17       0.13       0.00       0.13        0.00     0.00   0.404
  S577                       0.32       0.00       0.00       0.22       0.08       0.00       0.08        0.00     0.00   0.241
  S578                       0.32       0.00       0.00       0.05       0.21       0.00       0.21        0.00     0.00   0.669
  S579                       0.32       0.00       0.00       0.29       0.00       0.00       0.00        0.00     0.00   0.010
  S580                       0.32       0.00       0.00       0.17       0.13       0.00       0.13        0.00     0.00   0.404
  S581                       0.32       0.00       0.00       0.28       0.00       0.00       0.00        0.00     0.00   0.010
  S582                       0.32       0.00       0.00       0.30       0.00       0.00       0.00        0.00     0.00   0.005
  S583                       0.32       0.00       0.00       0.05       0.21       0.00       0.21        0.00     0.00   0.670
  S584                       0.32       0.00       0.00       0.30       0.00       0.00       0.00        0.00     0.00   0.005
  S585                       0.32       0.00       0.00       0.05       0.21       0.00       0.21        0.00     0.00   0.666
  S586                       0.32       0.00       0.00       0.29       0.00       0.00       0.00        0.00     0.00   0.010
  S587                       0.32       0.00       0.00       0.29       0.00       0.00       0.00        0.00     0.00   0.010
  S588                       0.32       0.00       0.00       0.29       0.00       0.00       0.00        0.00     0.00   0.010
  S589                       0.32       0.00       0.00       0.31       0.00       0.00       0.00        0.00     0.00   0.002
  S590                       0.32       0.00       0.00       0.17       0.13       0.00       0.13        0.00     0.00   0.406
  S591                       0.32       0.00       0.00       0.28       0.00       0.00       0.00        0.00     0.00   0.010
  S592                       0.32       0.00       0.00       0.27       0.00       0.00       0.00        0.00     0.00   0.007
  S593                       0.32       0.00       0.00       0.25       0.05       0.00       0.05        0.00     0.00   0.158
  S594                       0.32       0.00       0.00       0.30       0.00       0.00       0.00        0.00     0.00   0.005
  S595                       0.32       0.00       0.00       0.31       0.00       0.00       0.00        0.00     0.00   0.002
  S596                       0.32       0.00       0.00       0.22       0.08       0.00       0.08        0.00     0.00   0.240
[...]
  S848                       0.32       0.00       0.00       0.29       0.00       0.00       0.00        0.00     0.00   0.010
  S849                       0.32       0.00       0.00       0.17       0.13       0.00       0.13        0.00     0.00   0.405
  S850                       0.32       0.00       0.00       0.30       0.00       0.00       0.00        0.00     0.00   0.005
  S851                       0.32       0.00       0.00       0.28       0.00       0.00       0.00        0.00     0.00   0.010
  S852                       0.32       0.00       0.00       0.27       0.00       0.00       0.00        0.00     0.00   0.007
  S853                       0.32       0.00       0.00       0.25       0.05       0.00       0.05        0.00     0.00   0.158
  S854                       0.32       0.00       0.00       0.28       0.00       0.00       0.00        0.00     0.00   0.010
  S855                       0.32       0.00       0.00       0.30       0.00       0.00       0.00        0.00     0.00   0.005
  S856                       0.32       0.00       0.00       0.22       0.08       0.00       0.08        0.00     0.00   0.240
  S857                       0.32       0.00       0.00       0.22       0.08       0.00       0.08        0.00     0.00   0.239
  S858                       0.32       0.00       0.00       0.17       0.13       0.00       0.13        0.00     0.00   0.405
  S859                       0.32       0.00       0.00       0.25       0.05       0.00       0.05        0.00     0.00   0.158
  S860                       0.32       0.00       0.00       0.11       0.16       0.00       0.16        0.00     0.00   0.520
  S861                       0.32       0.00       0.00       0.25       0.05       0.00       0.05        0.00     0.00   0.158
  S862                       0.32       0.00       0.00       0.30       0.00       0.00       0.00        0.00     0.00   0.005
  S863                       0.32       0.00       0.00       0.17       0.13       0.00       0.13        0.00     0.00   0.404
  S864                       0.32       0.00       0.00       0.29       0.00       0.00       0.00        0.00     0.00   0.010
  S865                       0.32       0.00       0.00       0.17       0.13       0.00       0.13        0.00     0.00   0.405
  S866                       0.32       0.00       0.00       0.29       0.00       0.00       0.00        0.00     0.00   0.010
  S867                       0.32       0.00       0.00       0.11       0.16       0.00       0.16        0.00     0.00   0.521
  S868                       0.32       0.00       0.00       0.17       0.13       0.00       0.13        0.00     0.00   0.404
  S869                       0.32       0.00       0.00       0.11       0.16       0.00       0.16        0.00     0.00   0.520
  S870                       0.32       0.00       0.00       0.30       0.00       0.00       0.00        0.00     0.00   0.005
  S871                       0.32       0.00       0.00       0.31       0.00       0.00       0.00        0.00     0.00   0.002
  S872                       0.32       0.00       0.00       0.29       0.00       0.00       0.00        0.00     0.00   0.010
  S873                       0.32       0.00       0.00       0.29       0.00       0.00       0.00        0.00     0.00   0.010
  S874                       0.32       0.00       0.00       0.29       0.00       0.00       0.00        0.00     0.00   0.010
  S875                       0.32       0.00       0.00       0.27       0.00       0.00       0.00        0.00     0.00   0.007
  S876                       0.32       0.00       0.00       0.17       0.13       0.00       0.13        0.00     0.00   0.405
  S877                       0.32       0.00       0.00       0.29       0.00       0.00       0.00        0.00     0.00   0.010
  S878                       0.32       0.00       0.00       0.25       0.05       0.00       0.05        0.00     0.00   0.158
  S879                       0.32       0.00       0.00       0.17       0.13       0.00       0.13        0.00     0.00   0.404
  S880                       0.32       0.00       0.00       0.22       0.08       0.00       0.08        0.00     0.00   0.240
  S881                       0.32       0.00       0.00       0.25       0.05       0.00       0.05        0.00     0.00   0.158
  S882                       0.32       0.00       0.00       0.25       0.05       0.00       0.05        0.00     0.00   0.158
  S883                       0.32       0.00       0.00       0.29       0.00       0.00       0.00        0.00     0.00   0.010
  S884                       0.32       0.00       0.00       0.25       0.05       0.00       0.05        0.00     0.00   0.158
  S885                       0.32       0.00       0.00       0.29       0.00       0.00       0.00        0.00     0.00   0.010
  S886                       0.32       0.00       0.00       0.05       0.21       0.00       0.21        0.00     0.00   0.668
  S887                       0.32       0.00       0.00       0.30       0.00       0.00       0.00        0.00     0.00   0.005
  S888                       0.32       0.00       0.00       0.29       0.00       0.00       0.00        0.00     0.00   0.010
  S889                       0.32       0.00       0.00       0.11       0.17       0.00       0.17        0.00     0.00   0.523
  S890                       0.32       0.00       0.00       0.17       0.13       0.00       0.13        0.00     0.00   0.404
  S891                       0.32       0.00       0.00       0.27       0.00       0.00       0.00        0.00     0.00   0.007
  S892                       0.32       0.00       0.00       0.30       0.00       0.00       0.00        0.00     0.00   0.005
  S893                       0.32       0.00       0.00       0.17       0.13       0.00       0.13        0.00     0.00   0.404
  S894                       0.32       0.00       0.00       0.25       0.05       0.00       0.05        0.00     0.00   0.158
  S895                       0.32       0.00       0.00       0.31       0.00       0.00       0.00        0.00     0.00   0.002
  S896                       0.32       0.00       0.00       0.28       0.00       0.00       0.00        0.00     0.00   0.010
  S897                       0.32       0.00       0.00       0.17       0.13       0.00       0.13        0.00     0.00   0.402
  S898                       0.32       0.00       0.00       0.27       0.00       0.00       0.00        0.00     0.00   0.007
  S899                       0.32       0.00       0.00       0.30       0.00       0.00       0.00        0.00     0.00   0.005
  S900                       0.32       0.00       0.00       0.31       0.00       0.00       0.00        0.00     0.00   0.002
  S901                       0.32       0.00       0.00       0.25       0.05       0.00       0.05        0.00     0.00   0.158
  S902                       0.32       0.00       0.00       0.28       0.00       0.00       0.00        0.00     0.00   0.010
  S903                       0.32       0.00       0.00       0.25       0.05       0.00       0.05        0.00     0.00   0.158
  S904                       0.32       0.00       0.00       0.05       0.21       0.00       0.21        0.00     0.00   0.667
  S905                       0.32       0.00       0.00       0.25       0.05       0.00       0.05        0.00     0.00   0.158
  S906                       0.32       0.00       0.00       0.28       0.00       0.00       0.00        0.00     0.00   0.010
  S907                       0.32       0.00       0.00       0.11       0.17       0.00       0.17        0.00     0.00   0.521
  S908                       0.32       0.00       0.00       0.17       0.13       0.00       0.13        0.00     0.00   0.406
  S909                       0.32       0.00       0.00       0.28       0.00       0.00       0.00        0.00     0.00   0.010
  S910                       0.32       0.00       0.00       0.22       0.08       0.00       0.08        0.00     0.00   0.240
  S911                       0.32       0.00       0.00       0.27       0.00       0.00       0.00        0.00     0.00   0.007
  S912                       0.32       0.00       0.00       0.31       0.00       0.00       0.00        0.00     0.00   0.002
  S913                       0.32       0.00       0.00       0.27       0.00       0.00       0.00        0.00     0.00   0.007
  S914                       0.32       0.00       0.00       0.25       0.05       0.00       0.05        0.00     0.00   0.157
  S915                       0.32       0.00       0.00       0.30       0.00       0.00       0.00        0.00     0.00   0.005
  S916                       0.32       0.00       0.00       0.30       0.00       0.00       0.00        0.00     0.00   0.005
  S917                       0.32       0.00       0.00       0.29       0.00       0.00       0.00        0.00     0.00   0.010
  S918                       0.32       0.00       0.00       0.30       0.00       0.00       0.00        0.00     0.00   0.005
  S919                       0.32       0.00       0.00       0.27       0.00       0.00       0.00        0.00     0.00   0.007
  S920                       0.32       0.00       0.00       0.11       0.16       0.00       0.16        0.00     0.00   0.520
  S921                       0.32       0.00       0.00       0.31       0.00       0.00       0.00        0.00     0.00   0.002
  S922                       0.32       0.00       0.00       0.17       0.13       0.00       0.13        0.00     0.00   0.404
  S923                       0.32       0.00       0.00       0.28       0.00       0.00       0.00        0.00     0.00   0.010
  S924                       0.32       0.00       0.00       0.25       0.05       0.00       0.05        0.00     0.00   0.158
  S925                       0.32       0.00       0.00       0.28       0.00       0.00       0.00        0.00     0.00   0.010
  S926                       0.32       0.00       0.00       0.27       0.00       0.00       0.00        0.00     0.00   0.007
  S927                       0.32       0.00       0.00       0.11       0.17       0.00       0.17        0.00     0.00   0.521
  S928                       0.32       0.00       0.00       0.17       0.13       0.00       0.13        0.00     0.00   0.403
  S929                       0.32       0.00       0.00       0.30       0.00       0.00       0.00        0.00     0.00   0.005
  S930                       0.32       0.00       0.00       0.27       0.00       0.00       0.00        0.00     0.00   0.007
  S931                       0.32       0.00       0.00       0.31       0.00       0.00       0.00        0.00     0.00   0.002
  S932                       0.32       0.00       0.00       0.31       0.00       0.00       0.00        0.00     0.00   0.002
  S933                       0.32       0.00       0.00       0.28       0.00       0.00       0.00        0.00     0.00   0.010
  S934                       0.32       0.00       0.00       0.22       0.08       0.00       0.08        0.00     0.00   0.240
  S935                       0.32       0.00       0.00       0.22       0.08       0.00       0.08        0.00     0.00   0.240
  S936                       0.32       0.00       0.00       0.17       0.13       0.00       0.13        0.00     0.00   0.403
  S937                       0.32       0.00       0.00       0.17       0.13       0.00       0.13        0.00     0.00   0.407
  S938                       0.32       0.00       0.00       0.22       0.08       0.00       0.08        0.00     0.00   0.239
  S939                       0.32       0.00       0.00       0.29       0.00       0.00       0.00        0.00     0.00   0.010
  S940                       0.32       0.00       0.00       0.27       0.00       0.00       0.00        0.00     0.00   0.007
  S941                       0.32       0.00       0.00       0.25       0.05       0.00       0.05        0.00     0.00   0.158
  S942                       0.32       0.00       0.00       0.29       0.00       0.00       0.00        0.00     0.00   0.010
  S943                       0.32       0.00       0.00       0.11       0.16       0.00       0.16        0.00     0.00   0.520
  S944                       0.32       0.00       0.00       0.17       0.13       0.00       0.13        0.00     0.00   0.403
  S945                       0.32       0.00       0.00       0.25       0.05       0.00       0.05        0.00     0.00   0.157
  S946                       0.32       0.00       0.00       0.17       0.13       0.00       0.13        0.00     0.00   0.403
  S947                       0.32       0.00       0.00       0.31       0.00       0.00       0.00        0.00     0.00   0.002
  S948                       0.32       0.00       0.00       0.17       0.13       0.00       0.13        0.00     0.00   0.403
  S949                       0.32       0.00       0.00       0.28       0.00       0.00       0.00        0.00     0.00   0.010
  S950                       0.32       0.00       0.00       0.30       0.00       0.00       0.00        0.00     0.00   0.005
  S951                       0.32       0.00       0.00       0.30       0.00       0.00       0.00        0.00     0.00   0.005
  S952                       0.32       0.00       0.00       0.30       0.00       0.00       0.00        0.00     0.00   0.005
  S953                       0.32       0.00       0.00       0.31       0.00       0.00       0.00        0.00     0.00   0.002
  S954                       0.32       0.00       0.00       0.25       0.05       0.00       0.05        0.00     0.00   0.158
  S955                       0.32       0.00       0.00       0.17       0.13       0.00       0.13        0.00     0.00   0.403
  S956                       0.32       0.00       0.00       0.30       0.00       0.00       0.00        0.00     0.00   0.005
  S957                       0.32       0.00       0.00       0.25       0.05       0.00       0.05        0.00     0.00   0.159
  S958                       0.32       0.00       0.00       0.11       0.16       0.00       0.16        0.00     0.00   0.520
  S959                       0.32       0.00       0.00       0.05       0.21       0.00       0.21        0.00     0.00   0.667
  S960                       0.32       0.00       0.00       0.30       0.00       0.00       0.00        0.00     0.00   0.005
  S961                       0.32       0.00       0.00       0.22       0.08       0.00       0.08        0.00     0.00   0.240
  S962                       0.32       0.00       0.00       0.30       0.00       0.00       0.00        0.00     0.00   0.005
  S963                       0.32       0.00       0.00       0.29       0.00       0.00       0.00        0.00     0.00   0.010
  S964                       0.32       0.00       0.00       0.28       0.00       0.00       0.00        0.00     0.00   0.010
  S965                       0.32       0.00       0.00       0.30       0.00       0.00       0.00        0.00     0.00   0.005
  S966                       0.32       0.00       0.00       0.27       0.00       0.00       0.00        0.00     0.00   0.007
  S967                       0.32       0.00       0.00       0.25       0.05       0.00       0.05        0.00     0.00   0.157
  S968                       0.32       0.00       0.00       0.27       0.00       0.00       0.00        0.00     0.00   0.007
  S969                       0.32       0.00       0.00       0.29       0.00       0.00       0.00        0.00     0.00   0.010
  S970                       0.32       0.00       0.00       0.05       0.21       0.00       0.21        0.00     0.00   0.671
  S971                       0.32       0.00       0.00       0.30       0.00       0.00       0.00        0.00     0.00   0.005
  S972                       0.32       0.00       0.00       0.05       0.21       0.00       0.21        0.00     0.00   0.666
  S973                       0.32       0.00       0.00       0.28       0.00       0.00       0.00        0.00     0.00   0.010
  S974                       0.32       0.00       0.00       0.30       0.00       0.00       0.00        0.00     0.00   0.005
  S975                       0.32       0.00       0.00       0.17       0.13       0.00       0.13        0.00     0.00   0.406
  S976                       0.32       0.00       0.00       0.28       0.00       0.00       0.00        0.00     0.00   0.010
  S977                       0.32       0.00       0.00       0.31       0.00       0.00       0.00        0.00     0.00   0.002
  S978                       0.32       0.00       0.00       0.11       0.16       0.00       0.16        0.00     0.00   0.520
  S979                       0.32       0.00       0.00       0.25       0.05       0.00       0.05        0.00     0.00   0.157
  S980                       0.32       0.00       0.00       0.30       0.00       0.00       0.00        0.00     0.00   0.005
  S981                       0.32       0.00       0.00       0.30       0.00       0.00       0.00        0.00     0.00   0.005
  S982                       0.32       0.00       0.00       0.17       0.13       0.00       0.13        0.00     0.00   0.404
  S983                       0.32       0.00       0.00       0.29       0.00       0.00       0.00        0.00     0.00   0.010
  S984                       0.32       0.00       0.00       0.25       0.05       0.00       0.05        0.00     0.00   0.158
  S985                       0.32       0.00       0.00       0.31       0.00       0.00       0.00        0.00     0.00   0.002
  S986                       0.32       0.00       0.00       0.28       0.00       0.00       0.00        0.00     0.00   0.010
  S987                       0.32       0.00       0.00       0.25       0.05       0.00       0.05        0.00     0.00   0.158
  S988                       0.32       0.00       0.00       0.27       0.00       0.00       0.00        0.00     0.00   0.007
  S989                       0.32       0.00       0.00       0.30       0.00       0.00       0.00        0.00     0.00   0.005
  S990                       0.32       0.00       0.00       0.17       0.13       0.00       0.13        0.00     0.00   0.406
  S991                       0.32       0.00       0.00       0.27       0.00       0.00       0.00        0.00     0.00   0.007
  S992                       0.32       0.00       0.00       0.05       0.21       0.00       0.21        0.00     0.00   0.665
  S993                       0.32       0.00       0.00       0.29       0.00       0.00       0.00        0.00     0.00   0.010
  S994                       0.32       0.00       0.00       0.22       0.08       0.00       0.08        0.00     0.00   0.240
  S995                       0.32       0.00       0.00       0.29       0.00       0.00       0.00        0.00     0.00   0.010
  S996                       0.32       0.00       0.00       0.30       0.00       0.00       0.00        0.00     0.00   0.005
  S997                       0.32       0.00       0.00       0.28       0.00       0.00       0.00        0.00     0.00   0.010
  S998                       0.32       0.00       0.00       0.11       0.17       0.00       0.17        0.00     0.00   0.527
  S999                       0.32       0.00       0.00       0.22       0.08       0.00       0.08        0.00     0.00   0.240
  S1000                      0.32       0.00       0.00       0.29       0.00       0.00       0.00        0.00     0.00   0.010
  S1001                      0.32       0.00       0.00       0.05       0.21       0.00       0.21        0.00     0.00   0.669
  

  Analysis begun on:  Tue May 23 12:22:33 2023
  Analysis ended on:  Tue May 23 12:22:33 2023
  Total elapsed time: < 1 sec