
  OWA STORM WATER MANAGEMENT MODEL - VERSION v5.2.3 (OWA 2023-03-28)
  ------------------------------------------------------------

  WARNING 09: time series interval greater than recording interval for Rain Gage Raingage2
  WARNING 01: wet weather time step reduced to recording interval for Rain Gage Raingage2
  
  ****************
  Analysis Options
  ****************
  Flow Units ............... CMS
  Process Models:
    Rainfall/Runoff ........ YES
    RDII ................... NO
    Snowmelt ............... NO
    Groundwater ............ NO
    Flow Routing ........... NO
    Water Quality .......... NO
  Infiltration Method ...... MODIFIED_GREEN_AMPT
  Starting Date ............ 06/17/2022 00:00:00
  Ending Date .............. 06/17/2022 12:00:00
  Antecedent Dry Days ...... 0.0
  Report Time Step ......... 00:15:00
  Wet Time Step ............ 00:01:00
  Dry Time Step ............ 01:00:00
  
  
  **************************        Volume         Depth
  Runoff Quantity Continuity     hectare-m            mm
  **************************     ---------       -------
  Total Precipitation ......         9.568         9.500
  Evaporation Loss .........         0.000         0.000
  Infiltration Loss ........         6.984         6.935
  Surface Runoff ...........         2.330         2.314
  Final Storage ............         0.295         0.293
  Continuity Error (%) .....        -0.432
  
  
  **************************        Volume        Volume
  Flow Routing Continuity        hectare-m      10^6 ltr
  **************************     ---------     ---------
  Dry Weather Inflow .......         0.000         0.000
  Wet Weather Inflow .......         2.330        23.303
  Groundwater Inflow .......         0.000         0.000
  RDII Inflow ..............         0.000         0.000
  External Inflow ..........         0.000         0.000
  External Outflow .........         2.330        23.303
  Flooding Loss ............         0.000         0.000
  Evaporation Loss .........         0.000         0.000
  Exfiltration Loss ........         0.000         0.000
  Initial Stored Volume ....         0.000         0.000
  Final Stored Volume ......         0.000         0.000
  Continuity Error (%) .....         0.000
  
  
  ***************************
  Subcatchment Runoff Summary
  ***************************
  
  ------------------------------------------------------------------------------------------------------------------------------
                            Total      Total      Total      Total     Imperv       Perv      Total       Total     Peak  Runoff
                           Precip      Runon       Evap      Infil     Runoff     Runoff     Runoff      Runoff   Runoff   Coeff
  Subcatchment                 mm         mm         mm         mm         mm         mm         mm    10^6 ltr      CMS
  ------------------------------------------------------------------------------------------------------------------------------
  S1                         9.50       0.00       0.00       7.17       1.85       0.43       2.28        0.01     0.00   0.240
  S2                         9.50       0.00       0.00       4.96       4.26       0.21       4.47        0.07     0.01   0.471
  S3                         9.50       0.00       0.00       8.55       0.45       0.42       0.86        0.01     0.00   0.091
  S4                         9.50       0.00       0.00       7.71       1.25       0.00       1.25        0.01     0.00   0.131
  S5                         9.50       0.00       0.00       7.01       2.13       0.18       2.31        0.03     0.01   0.243
  S6                         9.50       0.00       0.00       8.14       0.84       0.16       1.00        0.01     0.00   0.105
  S7                         9.50       0.00       0.00       8.59       0.43       0.18       0.61        0.01     0.00   0.064
  S8                         9.50       0.00       0.00       7.71       1.25       0.00       1.25        0.01     0.00   0.131
  S9                         9.50       0.00       0.00       4.95       4.27       0.25       4.52        0.04     0.01   0.476
  S10                        9.50       0.00       0.00       4.95       4.29       0.27       4.56        0.09     0.02   0.480
  S11                        9.50       0.00       0.00       6.33       2.81       0.15       2.95        0.03     0.01   0.311
  S12                        9.50       0.00       0.00       8.42       0.47       0.60       1.07        0.00     0.00   0.113
  S13                        9.50       0.00       0.00       8.14       0.84       0.20       1.05        0.02     0.00   0.110
  S14                        9.50       0.00       0.00       8.85       0.20       0.08       0.28        0.01     0.00   0.029
  S15                        9.50       0.00       0.00       4.96       4.26       0.21       4.47        0.07     0.01   0.471
  S16                        9.50       0.00       0.00       6.32       2.84       0.23       3.07        0.04     0.01   0.323
  S17                        9.50       0.00       0.00       7.71       1.25       0.00       1.25        0.00     0.00   0.131
  S18                        9.50       0.00       0.00       8.59       0.43       0.15       0.58        0.01     0.00   0.061
  S19                        9.50       0.00       0.00       7.01       2.10       0.13       2.23        0.03     0.01   0.235
  S20                        9.50       0.00       0.00       4.94       4.29       0.29       4.58        0.02     0.01   0.482
  S21                        9.50       0.00       0.00       8.15       0.84       0.14       0.98        0.01     0.00   0.103
  S22                        9.50       0.00       0.00       8.15       0.84       0.11       0.95        0.02     0.00   0.100
  S23                        9.50       0.00       0.00       7.01       2.10       0.13       2.23        0.03     0.01   0.235
  S24                        9.50       0.00       0.00       2.97       6.27       0.37       6.64        0.04     0.02   0.698
  S25                        9.50       0.00       0.00       6.88       2.29       0.49       2.78        0.00     0.00   0.292
  S26                        9.50       0.00       0.00       6.30       2.91       0.34       3.24        0.01     0.00   0.342
  S27                        9.50       0.00       0.00       6.32       2.83       0.20       3.03        0.06     0.02   0.319
  S28                        9.50       0.00       0.00       7.71       1.24       0.00       1.24        0.01     0.00   0.131
  S29                        9.50       0.00       0.00       8.59       0.43       0.18       0.61        0.01     0.00   0.064
  S30                        9.50       0.00       0.00       4.95       4.27       0.25       4.52        0.08     0.02   0.476
  S31                        9.50       0.00       0.00       4.78       4.50       0.45       4.95        0.00     0.00   0.521
  S32                        9.50       0.00       0.00       8.13       0.84       0.22       1.06        0.01     0.00   0.112
  S33                        9.50       0.00       0.00       4.95       4.28       0.27       4.55        0.03     0.01   0.479
  S34                        9.50       0.00       0.00       8.14       0.84       0.22       1.06        0.01     0.00   0.111
  S35                        9.50       0.00       0.00       2.99       6.15       0.34       6.49        0.12     0.04   0.683
  S36                        9.50       0.00       0.00       7.02       2.09       0.11       2.21        0.02     0.00   0.232
  S37                        9.50       0.00       0.00       7.71       1.24       0.00       1.24        0.01     0.00   0.130
  S38                        9.50       0.00       0.00       7.71       1.24       0.00       1.24        0.01     0.00   0.131
  S39                        9.50       0.00       0.00       8.85       0.20       0.08       0.28        0.00     0.00   0.029
  S40                        9.50       0.00       0.00       4.92       4.31       0.31       4.61        0.05     0.02   0.486
  S41                        9.50       0.00       0.00       8.15       0.84       0.10       0.94        0.01     0.00   0.099
  S42                        9.50       0.00       0.00       2.99       6.16       0.34       6.50        0.11     0.04   0.684
  S43                        9.50       0.00       0.00       4.97       4.24       0.16       4.40        0.09     0.01   0.463
  S44                        9.50       0.00       0.00       7.71       1.24       0.00       1.24        0.02     0.00   0.131
  S45                        9.50       0.00       0.00       6.32       2.85       0.24       3.09        0.03     0.01   0.325
  S46                        9.50       0.00       0.00       7.71       1.24       0.00       1.24        0.01     0.00   0.131
  S47                        9.50       0.00       0.00       7.01       2.12       0.17       2.29        0.04     0.01   0.241
  S48                        9.50       0.00       0.00       8.56       0.44       0.34       0.78        0.01     0.01   0.082
  S49                        9.50       0.00       0.00       4.95       4.27       0.25       4.52        0.08     0.02   0.476
  S50                        9.50       0.00       0.00       7.02       2.09       0.11       2.20        0.04     0.01   0.231
  S51                        9.50       0.00       0.00       2.99       6.18       0.35       6.53        0.08     0.03   0.688
  S52                        9.50       0.00       0.00       8.11       0.85       0.36       1.21        0.00     0.00   0.127
  S53                        9.50       0.00       0.00       8.84       0.20       0.16       0.36        0.00     0.00   0.038
  S54                        9.50       0.00       0.00       6.30       2.90       0.33       3.23        0.02     0.01   0.340
  S55                        9.50       0.00       0.00       8.56       0.44       0.35       0.79        0.01     0.01   0.083
  S56                        9.50       0.00       0.00       7.71       1.25       0.00       1.25        0.00     0.00   0.132
  S57                        9.50       0.00       0.00       8.14       0.84       0.20       1.04        0.02     0.00   0.109
  S58                        9.50       0.00       0.00       7.01       2.12       0.16       2.28        0.02     0.01   0.240
  S59                        9.50       0.00       0.00       8.13       0.84       0.25       1.10        0.00     0.00   0.116
  S60                        9.50       0.00       0.00       8.84       0.20       0.14       0.34        0.00     0.00   0.036
  S61                        9.50       0.00       0.00       7.71       1.24       0.00       1.24        0.01     0.00   0.131
  S62                        9.50       0.00       0.00       7.71       1.25       0.00       1.25        0.00     0.00   0.131
  S63                        9.50       0.00       0.00       6.91       2.28       0.45       2.73        0.00     0.00   0.288
  S64                        9.50       0.00       0.00       8.14       0.84       0.20       1.04        0.02     0.00   0.109
  S65                        9.50       0.00       0.00       8.81       0.21       0.35       0.56        0.00     0.00   0.059
  S66                        9.50       0.00       0.00       8.13       0.84       0.25       1.09        0.00     0.00   0.115
  S67                        9.50       0.00       0.00       6.33       2.82       0.18       3.00        0.04     0.01   0.316
  S68                        9.50       0.00       0.00       8.09       0.86       0.46       1.32        0.00     0.00   0.139
  S69                        9.50       0.00       0.00       4.96       4.26       0.21       4.47        0.08     0.02   0.470
  S70                        9.50       0.00       0.00       2.99       6.17       0.34       6.51        0.10     0.03   0.685
  S71                        9.50       0.00       0.00       7.71       1.24       0.00       1.24        0.01     0.00   0.131
  S72                        9.50       0.00       0.00       4.84       4.39       0.39       4.78        0.01     0.00   0.503
  S73                        9.50       0.00       0.00       8.54       0.45       0.46       0.91        0.00     0.00   0.096
  S74                        9.50       0.00       0.00       1.40       7.98       0.20       8.17        0.03     0.01   0.860
  S75                        9.50       0.00       0.00       4.92       4.31       0.31       4.62        0.03     0.01   0.486
  S76                        9.50       0.00       0.00       1.42       7.82       0.18       7.99        0.16     0.04   0.841
  S77                        9.50       0.00       0.00       7.71       1.25       0.00       1.25        0.00     0.00   0.131
  S78                        9.50       0.00       0.00       7.71       1.24       0.00       1.24        0.01     0.00   0.131
  S79                        9.50       0.00       0.00       4.87       4.36       0.36       4.72        0.02     0.01   0.496
  S80                        9.50       0.00       0.00       7.71       1.24       0.00       1.24        0.01     0.00   0.131
  S81                        9.50       0.00       0.00       8.14       0.84       0.17       1.01        0.00     0.00   0.106
  S82                        9.50       0.00       0.00       7.01       2.12       0.16       2.28        0.01     0.00   0.241
  S83                        9.50       0.00       0.00       2.99       6.17       0.35       6.52        0.10     0.03   0.686
  S84                        9.50       0.00       0.00       4.95       4.29       0.28       4.57        0.03     0.01   0.481
  S85                        9.50       0.00       0.00       1.41       7.89       0.19       8.08        0.06     0.02   0.850
  S86                        9.50       0.00       0.00       8.57       0.44       0.30       0.74        0.00     0.00   0.078
  S87                        9.50       0.00       0.00       6.32       2.83       0.21       3.04        0.06     0.02   0.320
  S88                        9.50       0.00       0.00       8.56       0.44       0.33       0.77        0.01     0.01   0.081
  S89                        9.50       0.00       0.00       7.02       2.08       0.08       2.15        0.04     0.01   0.227
  S90                        9.50       0.00       0.00       8.15       0.84       0.13       0.97        0.01     0.00   0.102
  S91                        9.50       0.00       0.00       8.14       0.84       0.18       1.02        0.02     0.00   0.108
  S92                        9.50       0.00       0.00       8.58       0.43       0.19       0.62        0.01     0.00   0.065
  S93                        9.50       0.00       0.00       1.40       8.13       0.21       8.34        0.01     0.01   0.878
  S94                        9.50       0.00       0.00       8.59       0.43       0.17       0.60        0.01     0.00   0.063
  S95                        9.50       0.00       0.00       8.14       0.84       0.19       1.03        0.02     0.00   0.109
  S96                        9.50       0.00       0.00       8.13       0.84       0.24       1.08        0.01     0.00   0.114
  S97                        9.50       0.00       0.00       8.55       0.44       0.38       0.82        0.01     0.00   0.087
  S98                        9.50       0.00       0.00       4.95       4.27       0.24       4.51        0.09     0.02   0.475
  S99                        9.50       0.00       0.00       2.99       6.16       0.34       6.50        0.11     0.04   0.684
  S100                       9.50       0.00       0.00       4.95       4.27       0.25       4.53        0.08     0.02   0.476
  S101                       9.50       0.00       0.00       7.01       2.11       0.14       2.25        0.02     0.01   0.237
  S102                       9.50       0.00       0.00       7.02       2.08       0.08       2.16        0.03     0.01   0.228
  S103                       9.50       0.00       0.00       8.56       0.44       0.32       0.76        0.01     0.01   0.080
  S104                       9.50       0.00       0.00       8.14       0.84       0.17       1.01        0.02     0.00   0.107
  S105                       9.50       0.00       0.00       8.15       0.84       0.12       0.95        0.02     0.00   0.100
  S106                       9.50       0.00       0.00       8.84       0.20       0.13       0.33        0.00     0.00   0.035
  S107                       9.50       0.00       0.00       4.96       4.25       0.19       4.44        0.05     0.01   0.467
  S108                       9.50       0.00       0.00       7.71       1.24       0.00       1.24        0.01     0.00   0.131
  S109                       9.50       0.00       0.00       7.71       1.24       0.00       1.24        0.02     0.00   0.131
  S110                       9.50       0.00       0.00       8.14       0.84       0.18       1.02        0.02     0.00   0.107
  S111                       9.50       0.00       0.00       7.02       2.08       0.09       2.18        0.03     0.01   0.229
  S112                       9.50       0.00       0.00       6.32       2.84       0.23       3.07        0.04     0.01   0.323
  S113                       9.50       0.00       0.00       7.71       1.24       0.00       1.24        0.01     0.00   0.131
  S114                       9.50       0.00       0.00       8.58       0.43       0.20       0.63        0.01     0.00   0.066
  S115                       9.50       0.00       0.00       2.99       6.17       0.34       6.51        0.10     0.03   0.686
  S116                       9.50       0.00       0.00       8.84       0.20       0.16       0.36        0.00     0.00   0.038
  S117                       9.50       0.00       0.00       7.02       2.08       0.08       2.15        0.04     0.01   0.227
  S118                       9.50       0.00       0.00       8.55       0.44       0.39       0.83        0.01     0.00   0.087
  S119                       9.50       0.00       0.00       1.40       7.98       0.20       8.18        0.03     0.01   0.861
  S120                       9.50       0.00       0.00       7.71       1.24       0.00       1.24        0.01     0.00   0.131
  S121                       9.50       0.00       0.00       8.13       0.84       0.22       1.06        0.00     0.00   0.112
  S122                       9.50       0.00       0.00       7.01       2.13       0.17       2.30        0.01     0.00   0.242
  S123                       9.50       0.00       0.00       7.01       2.13       0.19       2.32        0.03     0.01   0.244
  S124                       9.50       0.00       0.00       7.99       0.88       0.57       1.45        0.00     0.00   0.152
  S125                       9.50       0.00       0.00       8.56       0.44       0.35       0.79        0.01     0.01   0.083
  S126                       9.50       0.00       0.00       4.91       4.32       0.32       4.64        0.04     0.01   0.488
  S127                       9.50       0.00       0.00       8.59       0.43       0.16       0.59        0.01     0.00   0.062
  S128                       9.50       0.00       0.00       7.02       2.08       0.09       2.17        0.03     0.01   0.228
  S129                       9.50       0.00       0.00       8.54       0.45       0.46       0.91        0.00     0.00   0.096
  S130                       9.50       0.00       0.00       8.84       0.20       0.15       0.35        0.00     0.00   0.037
  S131                       9.50       0.00       0.00       8.15       0.84       0.14       0.97        0.01     0.00   0.103
  S132                       9.50       0.00       0.00       8.85       0.20       0.12       0.32        0.00     0.00   0.034
  S133                       9.50       0.00       0.00       7.71       1.24       0.00       1.24        0.02     0.00   0.130
  S134                       9.50       0.00       0.00       7.71       1.24       0.00       1.24        0.01     0.00   0.131
  S135                       9.50       0.00       0.00       7.71       1.25       0.00       1.25        0.01     0.00   0.131
  S136                       9.50       0.00       0.00       7.71       1.25       0.00       1.25        0.00     0.00   0.132
  S137                       9.50       0.00       0.00       6.31       2.87       0.28       3.15        0.02     0.01   0.332
  S138                       9.50       0.00       0.00       8.59       0.43       0.18       0.61        0.01     0.00   0.064
  S139                       9.50       0.00       0.00       2.98       6.20       0.35       6.55        0.07     0.03   0.689
  S140                       9.50       0.00       0.00       8.85       0.20       0.08       0.27        0.01     0.00   0.029
  S141                       9.50       0.00       0.00       8.58       0.43       0.19       0.62        0.01     0.00   0.065
  S142                       9.50       0.00       0.00       6.32       2.83       0.20       3.03        0.06     0.02   0.319
  S143                       9.50       0.00       0.00       7.71       1.24       0.00       1.24        0.01     0.00   0.131
  S144                       9.50       0.00       0.00       7.71       1.24       0.00       1.24        0.02     0.00   0.131
  S145                       9.50       0.00       0.00       8.54       0.45       0.48       0.93        0.00     0.00   0.098
  S146                       9.50       0.00       0.00       7.71       1.25       0.00       1.25        0.00     0.00   0.131
  S147                       9.50       0.00       0.00       7.01       2.12       0.17       2.29        0.03     0.01   0.241
  S148                       9.50       0.00       0.00       7.71       1.24       0.00       1.24        0.02     0.00   0.131
  S149                       9.50       0.00       0.00       6.98       2.22       0.32       2.53        0.00     0.00   0.267
  S150                       9.50       0.00       0.00       7.00       2.14       0.20       2.34        0.00     0.00   0.247
  S151                       9.50       0.00       0.00       7.01       2.12       0.17       2.29        0.01     0.00   0.241
  S152                       9.50       0.00       0.00       8.13       0.85       0.28       1.13        0.01     0.00   0.119
  S153                       9.50       0.00       0.00       7.71       1.24       0.00       1.24        0.01     0.00   0.131
  S154                       9.50       0.00       0.00       6.31       2.88       0.29       3.17        0.03     0.01   0.334
  S155                       9.50       0.00       0.00       6.27       2.94       0.38       3.32        0.01     0.00   0.350
  S156                       9.50       0.00       0.00       6.33       2.82       0.18       3.00        0.04     0.01   0.315
  S157                       9.50       0.00       0.00       8.85       0.20       0.11       0.30        0.00     0.00   0.032
  S158                       9.50       0.00       0.00       8.15       0.84       0.13       0.97        0.01     0.00   0.102
  S159                       9.50       0.00       0.00       7.71       1.24       0.00       1.24        0.01     0.00   0.131
  S160                       9.50       0.00       0.00       8.55       0.44       0.38       0.83        0.01     0.00   0.087
  S161                       9.50       0.00       0.00       7.00       2.17       0.25       2.42        0.01     0.01   0.255
  S162                       9.50       0.00       0.00       7.71       1.24       0.00       1.24        0.01     0.00   0.131
  S163                       9.50       0.00       0.00       8.16       0.84       0.08       0.92        0.02     0.00   0.097
  S164                       9.50       0.00       0.00       7.71       1.24       0.00       1.24        0.02     0.00   0.130
  S165                       9.50       0.00       0.00       8.56       0.44       0.36       0.80        0.01     0.01   0.085
  S166                       9.50       0.00       0.00       7.71       1.24       0.00       1.24        0.01     0.00   0.131
  S167                       9.50       0.00       0.00       8.11       0.85       0.36       1.21        0.00     0.00   0.128
  S168                       9.50       0.00       0.00       8.13       0.84       0.26       1.11        0.01     0.00   0.117
  S169                       9.50       0.00       0.00       7.02       2.09       0.10       2.19        0.02     0.01   0.231
  S170                       9.50       0.00       0.00       8.06       0.87       0.50       1.36        0.00     0.00   0.143
  S171                       9.50       0.00       0.00       7.01       2.13       0.19       2.32        0.02     0.01   0.244
  S172                       9.50       0.00       0.00       7.71       1.25       0.00       1.25        0.00     0.00   0.132
  S173                       9.50       0.00       0.00       7.71       1.24       0.00       1.24        0.01     0.00   0.131
  S174                       9.50       0.00       0.00       1.41       7.92       0.19       8.11        0.05     0.02   0.853
  S175                       9.50       0.00       0.00       6.31       2.85       0.25       3.11        0.03     0.01   0.327
  S176                       9.50       0.00       0.00       4.92       4.31       0.31       4.62        0.01     0.00   0.486
  S177                       9.50       0.00       0.00       8.12       0.85       0.33       1.18        0.00     0.00   0.124
  S178                       9.50       0.00       0.00       7.00       2.16       0.23       2.40        0.01     0.00   0.252
  S179                       9.50       0.00       0.00       8.85       0.20       0.09       0.28        0.00     0.00   0.030
  S180                       9.50       0.00       0.00       8.59       0.43       0.18       0.61        0.01     0.00   0.064
  S181                       9.50       0.00       0.00       8.56       0.44       0.37       0.81        0.01     0.01   0.085
  S182                       9.50       0.00       0.00       8.56       0.44       0.34       0.78        0.01     0.01   0.082
  S183                       9.50       0.00       0.00       8.12       0.85       0.31       1.16        0.00     0.00   0.122
  S184                       9.50       0.00       0.00       2.98       6.21       0.36       6.56        0.06     0.02   0.691
  S185                       9.50       0.00       0.00       6.33       2.82       0.17       2.99        0.05     0.01   0.315
  S186                       9.50       0.00       0.00       7.71       1.24       0.00       1.24        0.02     0.00   0.130
  S187                       9.50       0.00       0.00       8.11       0.85       0.35       1.20        0.00     0.00   0.127
  S188                       9.50       0.00       0.00       8.13       0.84       0.24       1.08        0.00     0.00   0.114
  S189                       9.50       0.00       0.00       8.14       0.84       0.16       1.00        0.00     0.00   0.105
  S190                       9.50       0.00       0.00       8.55       0.44       0.38       0.82        0.01     0.00   0.087
  S191                       9.50       0.00       0.00       8.12       0.85       0.28       1.13        0.00     0.00   0.119
  S192                       9.50       0.00       0.00       7.71       1.24       0.00       1.24        0.01     0.00   0.131
  S193                       9.50       0.00       0.00       8.50       0.46       0.52       0.97        0.00     0.00   0.103
  S194                       9.50       0.00       0.00       8.85       0.20       0.09       0.29        0.00     0.00   0.030
  S195                       9.50       0.00       0.00       8.15       0.84       0.11       0.95        0.02     0.00   0.100
  S196                       9.50       0.00       0.00       8.12       0.85       0.32       1.17        0.01     0.00   0.123
  S197                       9.50       0.00       0.00       4.95       4.28       0.25       4.53        0.07     0.02   0.477
  S198                       9.50       0.00       0.00       7.71       1.24       0.00       1.24        0.02     0.00   0.130
  S199                       9.50       0.00       0.00       7.71       1.24       0.00       1.24        0.02     0.00   0.131
  S200                       9.50       0.00       0.00       8.15       0.84       0.13       0.97        0.01     0.00   0.102
  S201                       9.50       0.00       0.00       8.59       0.43       0.15       0.57        0.01     0.00   0.060
  S202                       9.50       0.00       0.00       7.02       2.09       0.11       2.21        0.04     0.01   0.232
  S203                       9.50       0.00       0.00       6.33       2.81       0.15       2.95        0.03     0.01   0.311
  S204                       9.50       0.00       0.00       2.98       6.20       0.35       6.55        0.07     0.03   0.690
  S205                       9.50       0.00       0.00       7.71       1.24       0.00       1.24        0.01     0.00   0.131
  S206                       9.50       0.00       0.00       8.56       0.44       0.34       0.78        0.01     0.01   0.082
  S207                       9.50       0.00       0.00       8.58       0.43       0.23       0.66        0.00     0.00   0.070
  S208                       9.50       0.00       0.00       8.59       0.43       0.16       0.59        0.01     0.00   0.062
  S209                       9.50       0.00       0.00       1.40       7.99       0.20       8.19        0.03     0.01   0.862
  S210                       9.50       0.00       0.00       8.57       0.44       0.30       0.73        0.00     0.00   0.077
  S211                       9.50       0.00       0.00       1.41       7.85       0.18       8.03        0.10     0.03   0.845
  S212                       9.50       0.00       0.00       7.71       1.25       0.00       1.25        0.01     0.00   0.131
  S213                       9.50       0.00       0.00       8.13       0.84       0.25       1.10        0.01     0.00   0.116
  S214                       9.50       0.00       0.00       7.71       1.25       0.00       1.25        0.00     0.00   0.132
  S215                       9.50       0.00       0.00       2.97       6.25       0.37       6.61        0.04     0.02   0.696
  S216                       9.50       0.00       0.00       2.99       6.18       0.35       6.52        0.09     0.03   0.687
  S217                       9.50       0.00       0.00       8.14       0.84       0.17       1.01        0.01     0.00   0.106
  S218                       9.50       0.00       0.00       7.00       2.14       0.21       2.35        0.00     0.00   0.247
  S219                       9.50       0.00       0.00       8.14       0.84       0.20       1.05        0.00     0.00   0.110
  S220                       9.50       0.00       0.00       6.33       2.81       0.16       2.97        0.03     0.01   0.312
  S221                       9.50       0.00       0.00       4.90       4.33       0.33       4.66        0.02     0.01   0.490
  S222                       9.50       0.00       0.00       6.31       2.88       0.29       3.17        0.03     0.01   0.333
  S223                       9.50       0.00       0.00       8.59       0.43       0.16       0.59        0.01     0.00   0.062
  S224                       9.50       0.00       0.00       4.96       4.25       0.20       4.46        0.08     0.02   0.469
  S225                       9.50       0.00       0.00       8.14       0.84       0.21       1.05        0.02     0.00   0.111
  S226                       9.50       0.00       0.00       7.71       1.24       0.00       1.24        0.02     0.00   0.130
  S227                       9.50       0.00       0.00       8.84       0.20       0.15       0.34        0.00     0.00   0.036
  S228                       9.50       0.00       0.00       6.99       2.18       0.26       2.44        0.00     0.00   0.256
  S229                       9.50       0.00       0.00       7.01       2.11       0.14       2.25        0.04     0.01   0.237
  S230                       9.50       0.00       0.00       7.71       1.24       0.00       1.24        0.01     0.00   0.131
  S231                       9.50       0.00       0.00       6.99       2.18       0.27       2.45        0.01     0.00   0.257
  S232                       9.50       0.00       0.00       6.32       2.83       0.19       3.02        0.02     0.00   0.318
  S233                       9.50       0.00       0.00       8.56       0.44       0.34       0.78        0.01     0.01   0.082
  S234                       9.50       0.00       0.00       8.14       0.84       0.18       1.02        0.01     0.00   0.107
  S235                       9.50       0.00       0.00       6.32       2.84       0.23       3.07        0.04     0.01   0.323
  S236                       9.50       0.00       0.00       6.97       2.25       0.38       2.63        0.00     0.00   0.276
  S237                       9.50       0.00       0.00       4.83       4.41       0.40       4.81        0.01     0.01   0.506
  S238                       9.50       0.00       0.00       8.12       0.85       0.29       1.14        0.01     0.00   0.120
  S239                       9.50       0.00       0.00       7.00       2.15       0.21       2.36        0.02     0.01   0.248
  S240                       9.50       0.00       0.00       2.98       6.21       0.36       6.56        0.06     0.02   0.691
  S241                       9.50       0.00       0.00       4.91       4.31       0.31       4.62        0.03     0.01   0.487
  S242                       9.50       0.00       0.00       8.15       0.84       0.15       0.99        0.01     0.00   0.104
  S243                       9.50       0.00       0.00       8.15       0.84       0.15       0.99        0.01     0.00   0.104
  S244                       9.50       0.00       0.00       8.59       0.43       0.17       0.60        0.01     0.00   0.063
  S245                       9.50       0.00       0.00       8.59       0.43       0.17       0.60        0.01     0.00   0.063
  S246                       9.50       0.00       0.00       1.41       7.82       0.18       8.00        0.15     0.04   0.842
  S247                       9.50       0.00       0.00       6.32       2.84       0.22       3.05        0.05     0.01   0.321
  S248                       9.50       0.00       0.00       7.71       1.24       0.00       1.24        0.02     0.00   0.131
  S249                       9.50       0.00       0.00       8.13       0.84       0.24       1.09        0.01     0.00   0.115
  S250                       9.50       0.00       0.00       8.15       0.84       0.13       0.97        0.01     0.00   0.102
  S251                       9.50       0.00       0.00       7.71       1.24       0.00       1.24        0.01     0.00   0.131
  S252                       9.50       0.00       0.00       8.58       0.43       0.23       0.66        0.00     0.00   0.069
  S253                       9.50       0.00       0.00       6.33       2.80       0.13       2.93        0.04     0.01   0.309
  S254                       9.50       0.00       0.00       8.54       0.45       0.47       0.92        0.00     0.00   0.097
  S255                       9.50       0.00       0.00       4.88       4.34       0.34       4.68        0.01     0.00   0.493
  S256                       9.50       0.00       0.00       8.56       0.44       0.35       0.80        0.00     0.00   0.084
  S257                       9.50       0.00       0.00       7.71       1.24       0.00       1.24        0.02     0.00   0.130
  S258                       9.50       0.00       0.00       8.55       0.45       0.42       0.87        0.01     0.00   0.091
  S259                       9.50       0.00       0.00       6.28       2.93       0.37       3.30        0.00     0.00   0.347
  S260                       9.50       0.00       0.00       7.71       1.25       0.00       1.25        0.01     0.00   0.131
  S261                       9.50       0.00       0.00       4.96       4.25       0.17       4.42        0.06     0.01   0.465
  S262                       9.50       0.00       0.00       6.33       2.82       0.18       3.00        0.02     0.00   0.316
  S263                       9.50       0.00       0.00       8.28       0.48       0.74       1.22        0.00     0.00   0.129
  S264                       9.50       0.00       0.00       1.41       7.82       0.18       7.99        0.15     0.04   0.842
  S265                       9.50       0.00       0.00       8.12       0.85       0.31       1.16        0.00     0.00   0.122
  S266                       9.50       0.00       0.00       6.31       2.87       0.27       3.14        0.02     0.01   0.331
  S267                       9.50       0.00       0.00       8.14       0.84       0.17       1.01        0.01     0.00   0.107
  S268                       9.50       0.00       0.00       8.14       0.84       0.21       1.05        0.00     0.00   0.111
  S269                       9.50       0.00       0.00       8.40       0.47       0.62       1.09        0.00     0.00   0.114
  S270                       9.50       0.00       0.00       8.15       0.84       0.11       0.95        0.02     0.00   0.100
  S271                       9.50       0.00       0.00       4.97       4.24       0.16       4.41        0.07     0.01   0.464
  S272                       9.50       0.00       0.00       7.71       1.24       0.00       1.24        0.02     0.00   0.130
  S273                       9.50       0.00       0.00       8.15       0.84       0.13       0.97        0.01     0.00   0.102
  S274                       9.50       0.00       0.00       7.71       1.24       0.00       1.24        0.02     0.00   0.130
  S275                       9.50       0.00       0.00       6.98       2.23       0.35       2.58        0.00     0.00   0.272
  S276                       9.50       0.00       0.00       4.95       4.28       0.26       4.54        0.07     0.02   0.478
  S277                       9.50       0.00       0.00       7.71       1.24       0.00       1.24        0.02     0.00   0.130
  S278                       9.50       0.00       0.00       7.71       1.24       0.00       1.24        0.02     0.00   0.131
  S279                       9.50       0.00       0.00       8.11       0.85       0.34       1.19        0.00     0.00   0.126
  S280                       9.50       0.00       0.00       8.59       0.43       0.17       0.60        0.01     0.00   0.064
  S281                       9.50       0.00       0.00       2.96       6.39       0.39       6.78        0.02     0.01   0.714
  S282                       9.50       0.00       0.00       8.15       0.84       0.15       0.99        0.00     0.00   0.104
  S283                       9.50       0.00       0.00       1.41       7.82       0.18       7.99        0.15     0.04   0.842
  S284                       9.50       0.00       0.00       8.13       0.84       0.23       1.07        0.01     0.00   0.113
  S285                       9.50       0.00       0.00       8.12       0.85       0.32       1.17        0.00     0.00   0.123
  S286                       9.50       0.00       0.00       6.33       2.81       0.17       2.98        0.05     0.01   0.314
  S287                       9.50       0.00       0.00       7.71       1.24       0.00       1.24        0.02     0.00   0.130
  S288                       9.50       0.00       0.00       6.28       2.94       0.37       3.31        0.00     0.00   0.348
  S289                       9.50       0.00       0.00       8.14       0.84       0.16       1.00        0.01     0.00   0.106
  S290                       9.50       0.00       0.00       8.56       0.44       0.33       0.77        0.00     0.00   0.081
  S291                       9.50       0.00       0.00       8.56       0.44       0.33       0.77        0.01     0.01   0.081
  S292                       9.50       0.00       0.00       6.32       2.85       0.24       3.08        0.05     0.02   0.325
  S293                       9.50       0.00       0.00       7.71       1.24       0.00       1.24        0.01     0.00   0.130
  S294                       9.50       0.00       0.00       7.01       2.13       0.17       2.30        0.04     0.01   0.242
  S295                       9.50       0.00       0.00       1.41       7.83       0.18       8.01        0.13     0.03   0.843
  S296                       9.50       0.00       0.00       7.71       1.24       0.00       1.24        0.01     0.00   0.131
  S297                       9.50       0.00       0.00       7.71       1.24       0.00       1.24        0.02     0.00   0.131
  S298                       9.50       0.00       0.00       8.54       0.45       0.44       0.89        0.01     0.00   0.094
  S299                       9.50       0.00       0.00       7.02       2.09       0.10       2.18        0.02     0.01   0.230
  S300                       9.50       0.00       0.00       6.33       2.80       0.13       2.94        0.04     0.01   0.309
  S301                       9.50       0.00       0.00       6.21       2.99       0.44       3.43        0.00     0.00   0.361
  S302                       9.50       0.00       0.00       8.14       0.84       0.20       1.04        0.00     0.00   0.110
  S303                       9.50       0.00       0.00       8.59       0.43       0.15       0.58        0.01     0.00   0.061
  S304                       9.50       0.00       0.00       8.14       0.84       0.21       1.05        0.00     0.00   0.111
  S305                       9.50       0.00       0.00       8.13       0.85       0.28       1.12        0.00     0.00   0.118
  S306                       9.50       0.00       0.00       8.15       0.84       0.12       0.96        0.01     0.00   0.101
  S307                       9.50       0.00       0.00       8.14       0.84       0.20       1.04        0.00     0.00   0.110
  S308                       9.50       0.00       0.00       6.33       2.82       0.18       3.00        0.04     0.01   0.316
  S309                       9.50       0.00       0.00       4.86       4.37       0.37       4.74        0.01     0.00   0.499
  S310                       9.50       0.00       0.00       6.32       2.84       0.24       3.08        0.01     0.00   0.324
  S311                       9.50       0.00       0.00       8.15       0.84       0.13       0.97        0.01     0.00   0.102
  S312                       9.50       0.00       0.00       8.14       0.84       0.20       1.04        0.02     0.00   0.109
  S313                       9.50       0.00       0.00       6.32       2.84       0.22       3.06        0.05     0.01   0.322
  S314                       9.50       0.00       0.00       4.95       4.29       0.27       4.56        0.09     0.02   0.480
  S315                       9.50       0.00       0.00       7.71       1.24       0.00       1.24        0.01     0.00   0.131
  S316                       9.50       0.00       0.00       8.59       0.43       0.15       0.58        0.01     0.00   0.061
  S317                       9.50       0.00       0.00       8.59       0.43       0.19       0.62        0.01     0.00   0.065
  S318                       9.50       0.00       0.00       8.59       0.43       0.15       0.58        0.01     0.00   0.061
  S319                       9.50       0.00       0.00       4.96       4.26       0.23       4.49        0.06     0.01   0.472
  S320                       9.50       0.00       0.00       7.00       2.15       0.22       2.37        0.01     0.01   0.250
  S321                       9.50       0.00       0.00       7.71       1.25       0.00       1.25        0.00     0.00   0.131
  S322                       9.50       0.00       0.00       8.57       0.44       0.29       0.73        0.00     0.00   0.077
  S323                       9.50       0.00       0.00       7.71       1.24       0.00       1.24        0.02     0.00   0.131
  S324                       9.50       0.00       0.00       6.33       2.81       0.17       2.98        0.05     0.01   0.314
  S325                       9.50       0.00       0.00       8.15       0.84       0.11       0.95        0.02     0.00   0.100
  S326                       9.50       0.00       0.00       7.00       2.14       0.19       2.33        0.01     0.00   0.245
  S327                       9.50       0.00       0.00       6.31       2.86       0.27       3.13        0.04     0.01   0.330
  S328                       9.50       0.00       0.00       7.01       2.10       0.13       2.23        0.03     0.01   0.234
  S329                       9.50       0.00       0.00       6.31       2.86       0.26       3.11        0.04     0.01   0.328
  S330                       9.50       0.00       0.00       8.15       0.84       0.11       0.95        0.02     0.00   0.100
  S331                       9.50       0.00       0.00       8.13       0.85       0.27       1.12        0.01     0.00   0.118
  S332                       9.50       0.00       0.00       7.02       2.08       0.08       2.15        0.04     0.01   0.227
  S333                       9.50       0.00       0.00       6.33       2.81       0.14       2.95        0.04     0.01   0.310
  S334                       9.50       0.00       0.00       6.31       2.87       0.27       3.14        0.02     0.01   0.331
  S335                       9.50       0.00       0.00       8.55       0.45       0.42       0.87        0.01     0.00   0.092
  S336                       9.50       0.00       0.00       6.32       2.85       0.25       3.09        0.03     0.01   0.326
  S337                       9.50       0.00       0.00       8.13       0.84       0.24       1.08        0.00     0.00   0.114
  S338                       9.50       0.00       0.00       1.41       7.82       0.18       8.00        0.14     0.04   0.842
  S339                       9.50       0.00       0.00       7.91       0.89       0.64       1.53        0.00     0.00   0.161
  S340                       9.50       0.00       0.00       8.15       0.84       0.12       0.96        0.01     0.00   0.101
  S341                       9.50       0.00       0.00       8.53       0.45       0.49       0.95        0.00     0.00   0.100
  S342                       9.50       0.00       0.00       1.41       7.85       0.18       8.03        0.10     0.03   0.845
  S343                       9.50       0.00       0.00       6.32       2.84       0.23       3.07        0.04     0.01   0.323
  S344                       9.50       0.00       0.00       6.99       2.18       0.26       2.44        0.01     0.01   0.257
  S345                       9.50       0.00       0.00       8.14       0.84       0.16       1.00        0.01     0.00   0.105
  S346                       9.50       0.00       0.00       8.13       0.84       0.23       1.07        0.01     0.00   0.113
  S347                       9.50       0.00       0.00       8.15       0.84       0.11       0.95        0.02     0.00   0.100
  S348                       9.50       0.00       0.00       8.59       0.43       0.18       0.61        0.01     0.00   0.065
  S349                       9.50       0.00       0.00       8.85       0.20       0.08       0.28        0.00     0.00   0.030
  S350                       9.50       0.00       0.00       8.14       0.84       0.19       1.03        0.01     0.00   0.108
  S351                       9.50       0.00       0.00       6.33       2.80       0.12       2.92        0.05     0.01   0.307
  S352                       9.50       0.00       0.00       8.59       0.43       0.18       0.61        0.01     0.00   0.064
  S353                       9.50       0.00       0.00       7.71       1.24       0.00       1.24        0.02     0.00   0.130
  S354                       9.50       0.00       0.00       8.13       0.84       0.26       1.10        0.01     0.00   0.116
  S355                       9.50       0.00       0.00       6.33       2.82       0.17       2.99        0.05     0.01   0.315
  S356                       9.50       0.00       0.00       8.15       0.84       0.13       0.97        0.01     0.00   0.102
  S357                       9.50       0.00       0.00       8.14       0.84       0.22       1.06        0.00     0.00   0.111
  S358                       9.50       0.00       0.00       8.59       0.43       0.15       0.58        0.01     0.00   0.061
  S359                       9.50       0.00       0.00       8.10       0.86       0.42       1.28        0.00     0.00   0.135
  S360                       9.50       0.00       0.00       8.15       0.84       0.11       0.95        0.02     0.00   0.100
  S361                       9.50       0.00       0.00       8.15       0.84       0.12       0.95        0.02     0.00   0.100
  S362                       9.50       0.00       0.00       8.16       0.84       0.09       0.92        0.01     0.00   0.097
  S363                       9.50       0.00       0.00       8.14       0.84       0.21       1.05        0.01     0.00   0.111
  S364                       9.50       0.00       0.00       8.85       0.20       0.10       0.29        0.00     0.00   0.031
  S365                       9.50       0.00       0.00       8.15       0.84       0.13       0.97        0.01     0.00   0.102
  S366                       9.50       0.00       0.00       8.85       0.20       0.09       0.29        0.00     0.00   0.030
  S367                       9.50       0.00       0.00       8.14       0.84       0.16       1.00        0.01     0.00   0.105
  S368                       9.50       0.00       0.00       8.85       0.20       0.11       0.30        0.00     0.00   0.032
  S369                       9.50       0.00       0.00       2.99       6.17       0.34       6.51        0.10     0.03   0.685
  S370                       9.50       0.00       0.00       4.95       4.27       0.25       4.52        0.08     0.02   0.476
  S371                       9.50       0.00       0.00       6.27       2.95       0.39       3.33        0.01     0.00   0.351
  S372                       9.50       0.00       0.00       8.15       0.84       0.14       0.98        0.01     0.00   0.103
  S373                       9.50       0.00       0.00       1.41       7.82       0.18       8.00        0.15     0.04   0.842
  S374                       9.50       0.00       0.00       4.81       4.44       0.42       4.86        0.01     0.00   0.512
  S375                       9.50       0.00       0.00       6.30       2.90       0.32       3.22        0.01     0.01   0.339
  S376                       9.50       0.00       0.00       3.00       6.15       0.34       6.48        0.13     0.04   0.682
  S377                       9.50       0.00       0.00       8.14       0.84       0.18       1.02        0.01     0.00   0.107
  S378                       9.50       0.00       0.00       8.14       0.84       0.19       1.03        0.02     0.00   0.109
  S379                       9.50       0.00       0.00       7.71       1.24       0.00       1.24        0.01     0.00   0.131
  S380                       9.50       0.00       0.00       7.00       2.17       0.24       2.41        0.01     0.01   0.254
  S381                       9.50       0.00       0.00       8.15       0.84       0.14       0.98        0.01     0.00   0.103
  S382                       9.50       0.00       0.00       7.02       2.09       0.11       2.20        0.04     0.01   0.231
  S383                       9.50       0.00       0.00       7.71       1.27       0.00       1.27        0.00     0.00   0.134
  S384                       9.50       0.00       0.00       6.32       2.83       0.21       3.04        0.03     0.01   0.320
  S385                       9.50       0.00       0.00       8.40       0.47       0.62       1.09        0.00     0.00   0.114
  S386                       9.50       0.00       0.00       4.96       4.25       0.20       4.45        0.04     0.01   0.469
  S387                       9.50       0.00       0.00       8.12       0.85       0.34       1.19        0.00     0.00   0.125
  S388                       9.50       0.00       0.00       8.11       0.85       0.35       1.20        0.00     0.00   0.127
  S389                       9.50       0.00       0.00       8.59       0.43       0.15       0.58        0.01     0.00   0.061
  S390                       9.50       0.00       0.00       4.95       4.27       0.24       4.51        0.02     0.00   0.475
  S391                       9.50       0.00       0.00       8.85       0.20       0.08       0.28        0.01     0.00   0.029
  S392                       9.50       0.00       0.00       7.71       1.25       0.00       1.25        0.00     0.00   0.131
  S393                       9.50       0.00       0.00       8.15       0.84       0.13       0.96        0.01     0.00   0.101
  S394                       9.50       0.00       0.00       4.97       4.24       0.17       4.41        0.07     0.01   0.465
  S395                       9.50       0.00       0.00       1.40       8.00       0.20       8.20        0.03     0.01   0.863
  S396                       9.50       0.00       0.00       6.99       2.20       0.29       2.49        0.01     0.00   0.262
  S397                       9.50       0.00       0.00       7.71       1.24       0.00       1.24        0.02     0.00   0.130
  S398                       9.50       0.00       0.00       6.31       2.88       0.31       3.19        0.02     0.01   0.336
  S399                       9.50       0.00       0.00       7.71       1.25       0.00       1.25        0.00     0.00   0.131
  S400                       9.50       0.00       0.00       8.14       0.84       0.17       1.01        0.01     0.00   0.106
  S401                       9.50       0.00       0.00       6.33       2.81       0.15       2.95        0.03     0.01   0.311
  S402                       9.50       0.00       0.00       8.59       0.43       0.16       0.59        0.01     0.00   0.062
  S403                       9.50       0.00       0.00       4.95       4.27       0.24       4.51        0.05     0.01   0.475
  S404                       9.50       0.00       0.00       7.01       2.12       0.16       2.28        0.03     0.01   0.240
  S405                       9.50       0.00       0.00       4.93       4.30       0.30       4.60        0.04     0.01   0.484
  S406                       9.50       0.00       0.00       8.14       0.84       0.20       1.04        0.02     0.00   0.109
  S407                       9.50       0.00       0.00       7.71       1.24       0.00       1.24        0.02     0.00   0.130
  S408                       9.50       0.00       0.00       7.71       1.24       0.00       1.24        0.01     0.00   0.131
  S409                       9.50       0.00       0.00       8.14       0.84       0.20       1.04        0.02     0.00   0.110
  S410                       9.50       0.00       0.00       7.71       1.24       0.00       1.24        0.01     0.00   0.131
  S411                       9.50       0.00       0.00       8.14       0.84       0.16       1.00        0.01     0.00   0.105
  S412                       9.50       0.00       0.00       8.15       0.84       0.12       0.96        0.01     0.00   0.101
  S413                       9.50       0.00       0.00       8.11       0.85       0.35       1.20        0.00     0.00   0.126
  S414                       9.50       0.00       0.00       8.15       0.84       0.12       0.95        0.01     0.00   0.101
  S415                       9.50       0.00       0.00       7.01       2.12       0.17       2.30        0.03     0.01   0.242
  S416                       9.50       0.00       0.00       4.89       4.33       0.34       4.67        0.01     0.00   0.491
  S417                       9.50       0.00       0.00       6.33       2.81       0.16       2.97        0.03     0.01   0.312
  S418                       9.50       0.00       0.00       8.14       0.84       0.20       1.05        0.00     0.00   0.110
  S419                       9.50       0.00       0.00       6.99       2.18       0.26       2.44        0.01     0.01   0.256
  S420                       9.50       0.00       0.00       2.99       6.17       0.35       6.52        0.09     0.03   0.686
  S421                       9.50       0.00       0.00       7.01       2.10       0.13       2.24        0.01     0.00   0.235
  S422                       9.50       0.00       0.00       6.31       2.86       0.26       3.12        0.04     0.01   0.329
  S423                       9.50       0.00       0.00       7.02       2.09       0.11       2.20        0.04     0.01   0.232
  S424                       9.50       0.00       0.00       8.13       0.84       0.22       1.06        0.01     0.00   0.112
  S425                       9.50       0.00       0.00       8.11       0.85       0.36       1.21        0.00     0.00   0.128
  S426                       9.50       0.00       0.00       4.97       4.24       0.17       4.41        0.07     0.01   0.464
  S427                       9.50       0.00       0.00       7.71       1.24       0.00       1.24        0.01     0.00   0.131
  S428                       9.50       0.00       0.00       7.71       1.25       0.00       1.25        0.01     0.00   0.131
  S429                       9.50       0.00       0.00       7.71       1.25       0.00       1.25        0.00     0.00   0.131
  S430                       9.50       0.00       0.00       6.32       2.82       0.19       3.01        0.02     0.00   0.317
  S431                       9.50       0.00       0.00       7.71       1.24       0.00       1.24        0.00     0.00   0.131
  S432                       9.50       0.00       0.00       6.33       2.80       0.14       2.94        0.04     0.01   0.309
  S433                       9.50       0.00       0.00       7.71       1.25       0.00       1.25        0.00     0.00   0.131
  S434                       9.50       0.00       0.00       8.04       0.87       0.51       1.38        0.00     0.00   0.146
  S435                       9.50       0.00       0.00       2.99       6.15       0.34       6.49        0.12     0.04   0.683
  S436                       9.50       0.00       0.00       8.14       0.84       0.19       1.03        0.01     0.00   0.109
  S437                       9.50       0.00       0.00       8.14       0.84       0.19       1.04        0.02     0.00   0.109
  S438                       9.50       0.00       0.00       6.21       3.00       0.44       3.44        0.00     0.00   0.362
  S439                       9.50       0.00       0.00       4.92       4.31       0.30       4.61        0.04     0.01   0.485
  S440                       9.50       0.00       0.00       8.57       0.44       0.29       0.72        0.00     0.00   0.076
  S441                       9.50       0.00       0.00       6.32       2.83       0.21       3.05        0.03     0.01   0.321
  S442                       9.50       0.00       0.00       7.71       1.24       0.00       1.24        0.02     0.00   0.131
  S443                       9.50       0.00       0.00       8.13       0.84       0.22       1.06        0.01     0.00   0.112
  S444                       9.50       0.00       0.00       8.12       0.85       0.28       1.13        0.01     0.00   0.119
  S445                       9.50       0.00       0.00       8.55       0.45       0.41       0.86        0.01     0.00   0.090
  S446                       9.50       0.00       0.00       8.55       0.44       0.40       0.84        0.01     0.00   0.088
  S447                       9.50       0.00       0.00       8.58       0.43       0.20       0.63        0.01     0.00   0.066
  S448                       9.50       0.00       0.00       8.13       0.84       0.24       1.08        0.01     0.00   0.114
  S449                       9.50       0.00       0.00       8.15       0.84       0.09       0.93        0.01     0.00   0.098
  S450                       9.50       0.00       0.00       4.96       4.25       0.19       4.45        0.04     0.01   0.468
  S451                       9.50       0.00       0.00       8.84       0.20       0.18       0.38        0.00     0.00   0.040
  S452                       9.50       0.00       0.00       8.85       0.20       0.08       0.28        0.01     0.00   0.029
  S453                       9.50       0.00       0.00       8.56       0.44       0.36       0.80        0.01     0.01   0.084
  S454                       9.50       0.00       0.00       4.95       4.28       0.27       4.55        0.06     0.02   0.479
  S455                       9.50       0.00       0.00       4.87       4.35       0.36       4.71        0.02     0.01   0.496
  S456                       9.50       0.00       0.00       8.11       0.86       0.40       1.25        0.00     0.00   0.132
  S457                       9.50       0.00       0.00       8.15       0.84       0.12       0.96        0.02     0.00   0.101
  S458                       9.50       0.00       0.00       7.71       1.24       0.00       1.24        0.01     0.00   0.131
  S459                       9.50       0.00       0.00       8.85       0.20       0.09       0.29        0.00     0.00   0.030
  S460                       9.50       0.00       0.00       7.01       2.12       0.16       2.28        0.03     0.01   0.240
  S461                       9.50       0.00       0.00       8.14       0.84       0.20       1.05        0.02     0.00   0.110
  S462                       9.50       0.00       0.00       8.11       0.85       0.35       1.20        0.00     0.00   0.126
  S463                       9.50       0.00       0.00       8.15       0.84       0.11       0.95        0.02     0.00   0.100
  S464                       9.50       0.00       0.00       2.97       6.24       0.36       6.60        0.05     0.02   0.695
  S465                       9.50       0.00       0.00       4.82       4.41       0.41       4.82        0.00     0.00   0.507
  S466                       9.50       0.00       0.00       8.14       0.84       0.17       1.01        0.02     0.00   0.107
  S467                       9.50       0.00       0.00       8.45       0.46       0.57       1.03        0.00     0.00   0.109
  S468                       9.50       0.00       0.00       8.14       0.84       0.20       1.05        0.00     0.00   0.110
  S469                       9.50       0.00       0.00       8.15       0.84       0.12       0.95        0.02     0.00   0.100
  S470                       9.50       0.00       0.00       1.41       7.84       0.18       8.02        0.11     0.03   0.845
  S471                       9.50       0.00       0.00       8.85       0.20       0.08       0.28        0.01     0.00   0.029
  S472                       9.50       0.00       0.00       8.55       0.44       0.39       0.84        0.01     0.00   0.088
  S473                       9.50       0.00       0.00       8.85       0.20       0.10       0.29        0.00     0.00   0.031
  S474                       9.50       0.00       0.00       8.59       0.43       0.16       0.59        0.01     0.00   0.062
  S475                       9.50       0.00       0.00       4.82       4.43       0.41       4.84        0.01     0.00   0.509
  S476                       9.50       0.00       0.00       8.15       0.84       0.13       0.97        0.01     0.00   0.102
  S477                       9.50       0.00       0.00       7.02       2.08       0.09       2.17        0.03     0.01   0.229
  S478                       9.50       0.00       0.00       8.16       0.84       0.08       0.92        0.02     0.00   0.097
  S479                       9.50       0.00       0.00       7.71       1.24       0.00       1.24        0.02     0.00   0.131
  S480                       9.50       0.00       0.00       7.71       1.25       0.00       1.25        0.01     0.00   0.131
  S481                       9.50       0.00       0.00       8.59       0.43       0.18       0.61        0.01     0.00   0.064
  S482                       9.50       0.00       0.00       7.00       2.15       0.21       2.36        0.02     0.01   0.248
  S483                       9.50       0.00       0.00       4.96       4.26       0.22       4.49        0.06     0.01   0.472
  S484                       9.50       0.00       0.00       6.31       2.85       0.25       3.10        0.05     0.02   0.326
  S485                       9.50       0.00       0.00       1.40       8.01       0.20       8.21        0.02     0.01   0.864
  S486                       9.50       0.00       0.00       8.59       0.43       0.16       0.60        0.01     0.00   0.063
  S487                       9.50       0.00       0.00       7.71       1.24       0.00       1.24        0.01     0.00   0.131
  S488                       9.50       0.00       0.00       8.56       0.44       0.36       0.80        0.01     0.01   0.084
  S489                       9.50       0.00       0.00       7.02       2.09       0.11       2.20        0.04     0.01   0.231
  S490                       9.50       0.00       0.00       8.15       0.84       0.14       0.98        0.01     0.00   0.103
  S491                       9.50       0.00       0.00       8.58       0.43       0.20       0.64        0.01     0.00   0.067
  S492                       9.50       0.00       0.00       8.14       0.84       0.16       1.00        0.01     0.00   0.105
  S493                       9.50       0.00       0.00       8.55       0.45       0.42       0.86        0.01     0.00   0.091
  S494                       9.50       0.00       0.00       7.01       2.12       0.16       2.28        0.03     0.01   0.240
  S495                       9.50       0.00       0.00       8.85       0.20       0.09       0.28        0.00     0.00   0.030
  S496                       9.50       0.00       0.00       2.99       6.15       0.34       6.49        0.12     0.04   0.683
  S497                       9.50       0.00       0.00       7.01       2.11       0.14       2.25        0.02     0.01   0.236
  S498                       9.50       0.00       0.00       8.13       0.84       0.25       1.09        0.00     0.00   0.115
  S499                       9.50       0.00       0.00       8.85       0.20       0.08       0.27        0.01     0.00   0.029
  S500                       9.50       0.00       0.00       7.71       1.24       0.00       1.24        0.02     0.00   0.131
  S501                       9.50       0.00       0.00       8.13       0.85       0.27       1.11        0.01     0.00   0.117
  S502                       9.50       0.00       0.00       4.86       4.36       0.36       4.72        0.01     0.01   0.497
  S503                       9.50       0.00       0.00       8.14       0.84       0.20       1.04        0.02     0.00   0.110
  S504                       9.50       0.00       0.00       2.99       6.16       0.34       6.50        0.11     0.04   0.684
  S505                       9.50       0.00       0.00       8.85       0.20       0.11       0.31        0.00     0.00   0.032
  S506                       9.50       0.00       0.00       2.94       6.58       0.43       7.00        0.00     0.00   0.737
  S507                       9.50       0.00       0.00       8.15       0.84       0.11       0.95        0.02     0.00   0.100
  S508                       9.50       0.00       0.00       8.13       0.84       0.24       1.09        0.01     0.00   0.114
  S509                       9.50       0.00       0.00       8.56       0.44       0.35       0.79        0.01     0.01   0.083
  S510                       9.50       0.00       0.00       2.99       6.17       0.34       6.51        0.10     0.03   0.685
  S511                       9.50       0.00       0.00       6.33       2.80       0.13       2.93        0.04     0.01   0.309
  S512                       9.50       0.00       0.00       4.95       4.28       0.26       4.54        0.03     0.01   0.478
  S513                       9.50       0.00       0.00       8.59       0.43       0.16       0.59        0.01     0.00   0.062
  S514                       9.50       0.00       0.00       8.14       0.84       0.20       1.04        0.02     0.00   0.110
  S515                       9.50       0.00       0.00       6.32       2.85       0.25       3.10        0.05     0.02   0.326
  S516                       9.50       0.00       0.00       7.71       1.24       0.00       1.24        0.02     0.00   0.131
  S517                       9.50       0.00       0.00       8.54       0.45       0.48       0.93        0.00     0.00   0.098
  S518                       9.50       0.00       0.00       8.14       0.84       0.18       1.02        0.02     0.00   0.107
  S519                       9.50       0.00       0.00       2.98       6.22       0.36       6.58        0.06     0.02   0.693
  S520                       9.50       0.00       0.00       8.52       0.45       0.50       0.95        0.00     0.00   0.100
  S521                       9.50       0.00       0.00       7.71       1.24       0.00       1.24        0.02     0.00   0.131
  S522                       9.50       0.00       0.00       8.15       0.84       0.14       0.98        0.01     0.00   0.103
  S523                       9.50       0.00       0.00       8.56       0.44       0.32       0.76        0.01     0.01   0.080
  S524                       9.50       0.00       0.00       4.91       4.31       0.31       4.63        0.05     0.01   0.487
  S525                       9.50       0.00       0.00       8.14       0.84       0.19       1.03        0.02     0.00   0.108
  S526                       9.50       0.00       0.00       7.71       1.24       0.00       1.24        0.01     0.00   0.131
  S527                       9.50       0.00       0.00       8.07       0.87       0.49       1.35        0.00     0.00   0.142
  S528                       9.50       0.00       0.00       7.71       1.24       0.00       1.24        0.01     0.00   0.131
  S529                       9.50       0.00       0.00       8.12       0.85       0.32       1.17        0.00     0.00   0.123
  S530                       9.50       0.00       0.00       8.14       0.84       0.21       1.05        0.00     0.00   0.111
  S531                       9.50       0.00       0.00       8.13       0.84       0.26       1.11        0.01     0.00   0.117
  S532                       9.50       0.00       0.00       8.58       0.43       0.22       0.65        0.00     0.00   0.068
  S533                       9.50       0.00       0.00       8.15       0.84       0.15       0.99        0.00     0.00   0.104
  S534                       9.50       0.00       0.00       7.71       1.24       0.00       1.24        0.01     0.00   0.131
  S535                       9.50       0.00       0.00       4.94       4.29       0.28       4.57        0.03     0.01   0.481
  S536                       9.50       0.00       0.00       7.71       1.24       0.00       1.24        0.02     0.00   0.131
  S537                       9.50       0.00       0.00       1.41       7.83       0.18       8.01        0.12     0.03   0.843
  S538                       9.50       0.00       0.00       7.01       2.11       0.14       2.25        0.02     0.01   0.237
  S539                       9.50       0.00       0.00       6.99       2.21       0.30       2.51        0.01     0.00   0.264
  S540                       9.50       0.00       0.00       7.01       2.13       0.17       2.30        0.04     0.01   0.242
  S541                       9.50       0.00       0.00       8.14       0.84       0.21       1.05        0.01     0.00   0.111
  S542                       9.50       0.00       0.00       7.71       1.24       0.00       1.24        0.01     0.00   0.131
  S543                       9.50       0.00       0.00       7.71       1.24       0.00       1.24        0.01     0.00   0.131
  S544                       9.50       0.00       0.00       7.71       1.24       0.00       1.24        0.01     0.00   0.131
  S545                       9.50       0.00       0.00       8.12       0.85       0.29       1.13        0.00     0.00   0.119
  S546                       9.50       0.00       0.00       8.14       0.84       0.20       1.04        0.02     0.00   0.109
  S547                       9.50       0.00       0.00       6.85       2.29       0.52       2.80        0.00     0.00   0.295
  S548                       9.50       0.00       0.00       4.89       4.34       0.34       4.68        0.03     0.01   0.493
  S549                       9.50       0.00       0.00       4.96       4.25       0.19       4.44        0.05     0.01   0.468
  S550                       9.50       0.00       0.00       2.98       6.20       0.35       6.55        0.07     0.03   0.689
  S551                       9.50       0.00       0.00       8.12       0.85       0.33       1.18        0.00     0.00   0.124
  S552                       9.50       0.00       0.00       2.94       6.58       0.43       7.00        0.00     0.00   0.737
  S553                       9.50       0.00       0.00       7.71       1.24       0.00       1.24        0.01     0.00   0.131
  S554                       9.50       0.00       0.00       2.99       6.18       0.35       6.53        0.09     0.03   0.687
  S555                       9.50       0.00       0.00       8.12       0.85       0.29       1.14        0.00     0.00   0.120
  S556                       9.50       0.00       0.00       2.96       6.30       0.38       6.68        0.03     0.01   0.703
  S557                       9.50       0.00       0.00       7.71       1.24       0.00       1.24        0.02     0.00   0.130
  S558                       9.50       0.00       0.00       8.14       0.84       0.17       1.01        0.01     0.00   0.106
  S559                       9.50       0.00       0.00       6.91       2.28       0.45       2.73        0.00     0.00   0.288
  S560                       9.50       0.00       0.00       7.71       1.24       0.00       1.24        0.02     0.00   0.131
  S561                       9.50       0.00       0.00       8.59       0.43       0.14       0.57        0.01     0.00   0.060
  S562                       9.50       0.00       0.00       8.55       0.45       0.40       0.85        0.01     0.00   0.089
  S563                       9.50       0.00       0.00       7.01       2.11       0.14       2.25        0.04     0.01   0.237
  S564                       9.50       0.00       0.00       8.13       0.85       0.27       1.12        0.01     0.00   0.118
  S565                       9.50       0.00       0.00       8.54       0.45       0.48       0.93        0.00     0.00   0.098
  S566                       9.50       0.00       0.00       8.08       0.86       0.47       1.33        0.00     0.00   0.140
  S567                       9.50       0.00       0.00       8.85       0.20       0.10       0.30        0.00     0.00   0.031
  S568                       9.50       0.00       0.00       8.55       0.45       0.41       0.86        0.01     0.00   0.090
  S569                       9.50       0.00       0.00       7.71       1.24       0.00       1.24        0.02     0.00   0.130
  S570                       9.50       0.00       0.00       8.85       0.20       0.10       0.29        0.00     0.00   0.031
  S571                       9.50       0.00       0.00       8.55       0.45       0.41       0.86        0.01     0.00   0.090
  S572                       9.50       0.00       0.00       7.00       2.15       0.22       2.37        0.01     0.00   0.250
  S573                       9.50       0.00       0.00       4.95       4.27       0.24       4.51        0.04     0.01   0.475
  S574                       9.50       0.00       0.00       4.95       4.27       0.24       4.51        0.05     0.01   0.475
  S575                       9.50       0.00       0.00       2.99       6.17       0.34       6.51        0.10     0.03   0.685
  S576                       9.50       0.00       0.00       4.95       4.29       0.28       4.56        0.03     0.01   0.480
  S577                       9.50       0.00       0.00       6.27       2.94       0.38       3.32        0.01     0.00   0.350
  S578                       9.50       0.00       0.00       1.40       8.08       0.21       8.28        0.02     0.01   0.872
  S579                       9.50       0.00       0.00       8.15       0.84       0.14       0.97        0.01     0.00   0.103
  S580                       9.50       0.00       0.00       4.96       4.27       0.23       4.50        0.05     0.01   0.474
  S581                       9.50       0.00       0.00       8.14       0.84       0.22       1.06        0.01     0.00   0.111
  S582                       9.50       0.00       0.00       8.41       0.47       0.61       1.08        0.00     0.00   0.113
  S583                       9.50       0.00       0.00       1.40       8.12       0.21       8.33        0.01     0.01   0.877
  S584                       9.50       0.00       0.00       8.59       0.43       0.19       0.62        0.01     0.00   0.065
  S585                       9.50       0.00       0.00       1.41       7.86       0.18       8.05        0.08     0.02   0.847
  S586                       9.50       0.00       0.00       8.03       0.87       0.52       1.40        0.00     0.00   0.147
  S587                       9.50       0.00       0.00       8.15       0.84       0.12       0.96        0.01     0.00   0.101
  S588                       9.50       0.00       0.00       8.13       0.84       0.22       1.06        0.01     0.00   0.112
  S589                       9.50       0.00       0.00       8.85       0.20       0.10       0.30        0.00     0.00   0.031
  S590                       9.50       0.00       0.00       4.82       4.42       0.41       4.83        0.01     0.00   0.509
  S591                       9.50       0.00       0.00       8.15       0.84       0.13       0.97        0.01     0.00   0.102
  S592                       9.50       0.00       0.00       7.71       1.24       0.00       1.24        0.02     0.00   0.130
  S593                       9.50       0.00       0.00       7.01       2.10       0.13       2.24        0.01     0.00   0.236
  S594                       9.50       0.00       0.00       8.59       0.43       0.16       0.59        0.01     0.00   0.062
  S595                       9.50       0.00       0.00       8.84       0.20       0.16       0.36        0.00     0.00   0.038
  S596                       9.50       0.00       0.00       6.32       2.83       0.19       3.02        0.03     0.01   0.318
[...]
  S848                       9.50       0.00       0.00       8.14       0.84       0.21       1.05        0.02     0.00   0.110
  S849                       9.50       0.00       0.00       4.92       4.31       0.30       4.61        0.05     0.02   0.485
  S850                       9.50       0.00       0.00       8.55       0.44       0.39       0.84        0.01     0.00   0.088
  S851                       9.50       0.00       0.00       8.15       0.84       0.13       0.97        0.01     0.00   0.102
  S852                       9.50       0.00       0.00       7.71       1.24       0.00       1.24        0.01     0.00   0.130
  S853                       9.50       0.00       0.00       7.01       2.11       0.14       2.25        0.01     0.00   0.237
  S854                       9.50       0.00       0.00       8.15       0.84       0.11       0.95        0.02     0.00   0.100
  S855                       9.50       0.00       0.00       8.58       0.43       0.20       0.64        0.01     0.00   0.067
  S856                       9.50       0.00       0.00       6.32       2.85       0.24       3.09        0.05     0.02   0.325
  S857                       9.50       0.00       0.00       6.33       2.80       0.13       2.93        0.05     0.01   0.308
  S858                       9.50       0.00       0.00       4.92       4.31       0.31       4.62        0.02     0.00   0.487
  S859                       9.50       0.00       0.00       7.00       2.15       0.22       2.37        0.01     0.01   0.249
  S860                       9.50       0.00       0.00       2.99       6.15       0.34       6.49        0.12     0.04   0.683
  S861                       9.50       0.00       0.00       7.01       2.13       0.18       2.31        0.02     0.01   0.243
  S862                       9.50       0.00       0.00       8.56       0.44       0.32       0.76        0.00     0.00   0.080
  S863                       9.50       0.00       0.00       4.95       4.29       0.27       4.56        0.08     0.02   0.480
  S864                       9.50       0.00       0.00       8.15       0.84       0.14       0.98        0.01     0.00   0.103
  S865                       9.50       0.00       0.00       4.89       4.34       0.34       4.67        0.01     0.00   0.492
  S866                       9.50       0.00       0.00       8.12       0.85       0.29       1.14        0.01     0.00   0.120
  S867                       9.50       0.00       0.00       2.98       6.21       0.36       6.56        0.06     0.02   0.691
  S868                       9.50       0.00       0.00       4.96       4.26       0.23       4.49        0.05     0.01   0.473
  S869                       9.50       0.00       0.00       2.99       6.17       0.35       6.52        0.09     0.03   0.686
  S870                       9.50       0.00       0.00       8.59       0.43       0.15       0.58        0.01     0.00   0.061
  S871                       9.50       0.00       0.00       8.83       0.20       0.22       0.42        0.00     0.00   0.044
  S872                       9.50       0.00       0.00       8.03       0.87       0.52       1.40        0.00     0.00   0.147
  S873                       9.50       0.00       0.00       8.15       0.84       0.12       0.96        0.01     0.00   0.101
  S874                       9.50       0.00       0.00       8.15       0.84       0.14       0.98        0.01     0.00   0.103
  S875                       9.50       0.00       0.00       7.71       1.24       0.00       1.24        0.01     0.00   0.131
  S876                       9.50       0.00       0.00       4.90       4.33       0.33       4.66        0.04     0.01   0.490
  S877                       9.50       0.00       0.00       8.15       0.84       0.14       0.98        0.01     0.00   0.104
  S878                       9.50       0.00       0.00       7.00       2.14       0.19       2.33        0.03     0.01   0.245
  S879                       9.50       0.00       0.00       4.95       4.29       0.28       4.56        0.08     0.02   0.480
  S880                       9.50       0.00       0.00       6.32       2.83       0.21       3.04        0.01     0.00   0.320
  S881                       9.50       0.00       0.00       7.01       2.12       0.17       2.30        0.01     0.00   0.242
  S882                       9.50       0.00       0.00       7.01       2.11       0.14       2.25        0.02     0.01   0.237
  S883                       9.50       0.00       0.00       8.13       0.85       0.27       1.11        0.01     0.00   0.117
  S884                       9.50       0.00       0.00       7.01       2.11       0.14       2.25        0.04     0.01   0.236
  S885                       9.50       0.00       0.00       8.13       0.84       0.22       1.06        0.00     0.00   0.112
  S886                       9.50       0.00       0.00       1.40       7.97       0.20       8.16        0.03     0.01   0.859
  S887                       9.50       0.00       0.00       8.56       0.44       0.36       0.80        0.01     0.01   0.084
  S888                       9.50       0.00       0.00       8.12       0.85       0.33       1.18        0.00     0.00   0.124
  S889                       9.50       0.00       0.00       2.95       6.43       0.40       6.83        0.01     0.01   0.719
  S890                       9.50       0.00       0.00       4.95       4.29       0.27       4.56        0.08     0.02   0.480
  S891                       9.50       0.00       0.00       7.71       1.25       0.00       1.25        0.00     0.00   0.132
  S892                       9.50       0.00       0.00       8.56       0.44       0.33       0.76        0.01     0.01   0.080
  S893                       9.50       0.00       0.00       4.95       4.28       0.27       4.55        0.09     0.02   0.479
  S894                       9.50       0.00       0.00       7.01       2.12       0.17       2.29        0.04     0.01   0.241
  S895                       9.50       0.00       0.00       8.85       0.20       0.09       0.29        0.00     0.00   0.031
  S896                       9.50       0.00       0.00       8.13       0.84       0.23       1.07        0.00     0.00   0.113
  S897                       9.50       0.00       0.00       4.97       4.24       0.17       4.41        0.07     0.01   0.464
  S898                       9.50       0.00       0.00       7.71       1.24       0.00       1.24        0.02     0.00   0.130
  S899                       9.50       0.00       0.00       8.56       0.44       0.34       0.78        0.01     0.01   0.082
  S900                       9.50       0.00       0.00       8.85       0.20       0.09       0.29        0.00     0.00   0.030
  S901                       9.50       0.00       0.00       7.01       2.11       0.14       2.25        0.02     0.01   0.236
  S902                       9.50       0.00       0.00       8.14       0.84       0.20       1.04        0.00     0.00   0.109
  S903                       9.50       0.00       0.00       7.01       2.13       0.19       2.32        0.02     0.01   0.244
  S904                       9.50       0.00       0.00       1.41       7.87       0.18       8.06        0.07     0.02   0.848
  S905                       9.50       0.00       0.00       7.01       2.13       0.18       2.31        0.03     0.01   0.244
  S906                       9.50       0.00       0.00       8.12       0.85       0.30       1.15        0.01     0.00   0.121
  S907                       9.50       0.00       0.00       2.97       6.26       0.37       6.63        0.04     0.02   0.697
  S908                       9.50       0.00       0.00       4.86       4.36       0.37       4.73        0.01     0.01   0.498
  S909                       9.50       0.00       0.00       8.13       0.84       0.24       1.08        0.01     0.00   0.114
  S910                       9.50       0.00       0.00       6.31       2.86       0.26       3.12        0.04     0.01   0.328
  S911                       9.50       0.00       0.00       7.71       1.24       0.00       1.24        0.01     0.00   0.131
  S912                       9.50       0.00       0.00       8.85       0.20       0.11       0.31        0.00     0.00   0.033
  S913                       9.50       0.00       0.00       7.71       1.24       0.00       1.24        0.01     0.00   0.131
  S914                       9.50       0.00       0.00       7.02       2.09       0.11       2.20        0.04     0.01   0.232
  S915                       9.50       0.00       0.00       8.25       0.48       0.77       1.25        0.00     0.00   0.132
  S916                       9.50       0.00       0.00       8.54       0.45       0.48       0.93        0.00     0.00   0.098
  S917                       9.50       0.00       0.00       8.13       0.84       0.22       1.06        0.01     0.00   0.112
  S918                       9.50       0.00       0.00       8.30       0.48       0.72       1.20        0.00     0.00   0.126
  S919                       9.50       0.00       0.00       7.71       1.24       0.00       1.24        0.02     0.00   0.130
  S920                       9.50       0.00       0.00       2.99       6.17       0.35       6.52        0.09     0.03   0.686
  S921                       9.50       0.00       0.00       8.85       0.20       0.11       0.30        0.00     0.00   0.032
  S922                       9.50       0.00       0.00       4.95       4.28       0.26       4.54        0.07     0.02   0.478
  S923                       9.50       0.00       0.00       8.14       0.84       0.16       1.00        0.01     0.00   0.106
  S924                       9.50       0.00       0.00       7.01       2.12       0.17       2.29        0.03     0.01   0.241
  S925                       9.50       0.00       0.00       8.15       0.84       0.13       0.97        0.01     0.00   0.102
  S926                       9.50       0.00       0.00       7.71       1.24       0.00       1.24        0.00     0.00   0.131
  S927                       9.50       0.00       0.00       2.98       6.23       0.36       6.59        0.05     0.02   0.694
  S928                       9.50       0.00       0.00       4.96       4.26       0.22       4.48        0.07     0.01   0.471
  S929                       9.50       0.00       0.00       8.57       0.43       0.26       0.69        0.00     0.00   0.073
  S930                       9.50       0.00       0.00       7.71       1.24       0.00       1.24        0.02     0.00   0.131
  S931                       9.50       0.00       0.00       8.85       0.20       0.10       0.29        0.00     0.00   0.031
  S932                       9.50       0.00       0.00       8.84       0.20       0.13       0.33        0.00     0.00   0.035
  S933                       9.50       0.00       0.00       8.15       0.84       0.11       0.95        0.02     0.00   0.100
  S934                       9.50       0.00       0.00       6.33       2.82       0.18       3.00        0.04     0.01   0.316
  S935                       9.50       0.00       0.00       6.32       2.83       0.21       3.05        0.03     0.01   0.321
  S936                       9.50       0.00       0.00       4.96       4.25       0.19       4.45        0.04     0.01   0.468
  S937                       9.50       0.00       0.00       4.81       4.44       0.42       4.86        0.01     0.00   0.512
  S938                       9.50       0.00       0.00       6.33       2.81       0.14       2.95        0.04     0.01   0.310
  S939                       9.50       0.00       0.00       8.15       0.84       0.13       0.97        0.01     0.00   0.102
  S940                       9.50       0.00       0.00       7.71       1.24       0.00       1.24        0.01     0.00   0.131
  S941                       9.50       0.00       0.00       7.01       2.12       0.17       2.29        0.01     0.00   0.241
  S942                       9.50       0.00       0.00       8.13       0.85       0.27       1.12        0.01     0.00   0.118
  S943                       9.50       0.00       0.00       2.99       6.15       0.34       6.49        0.12     0.04   0.683
  S944                       9.50       0.00       0.00       4.96       4.25       0.20       4.45        0.09     0.02   0.469
  S945                       9.50       0.00       0.00       7.02       2.08       0.09       2.17        0.03     0.01   0.229
  S946                       9.50       0.00       0.00       4.96       4.26       0.21       4.47        0.08     0.02   0.470
  S947                       9.50       0.00       0.00       8.85       0.20       0.09       0.28        0.00     0.00   0.030
  S948                       9.50       0.00       0.00       4.96       4.26       0.21       4.47        0.03     0.01   0.471
  S949                       9.50       0.00       0.00       8.15       0.84       0.13       0.97        0.01     0.00   0.102
  S950                       9.50       0.00       0.00       8.55       0.45       0.43       0.87        0.01     0.00   0.092
  S951                       9.50       0.00       0.00       8.58       0.43       0.22       0.65        0.00     0.00   0.068
  S952                       9.50       0.00       0.00       8.59       0.43       0.15       0.58        0.01     0.00   0.061
  S953                       9.50       0.00       0.00       8.84       0.20       0.13       0.33        0.00     0.00   0.035
  S954                       9.50       0.00       0.00       7.01       2.13       0.18       2.31        0.03     0.01   0.243
  S955                       9.50       0.00       0.00       4.96       4.26       0.22       4.48        0.06     0.01   0.472
  S956                       9.50       0.00       0.00       8.58       0.43       0.21       0.64        0.01     0.00   0.067
  S957                       9.50       0.00       0.00       6.99       2.21       0.31       2.51        0.00     0.00   0.265
  S958                       9.50       0.00       0.00       2.99       6.16       0.34       6.50        0.11     0.04   0.685
  S959                       9.50       0.00       0.00       1.41       7.89       0.19       8.08        0.06     0.02   0.851
  S960                       9.50       0.00       0.00       8.57       0.44       0.28       0.72        0.00     0.00   0.076
  S961                       9.50       0.00       0.00       6.32       2.84       0.24       3.08        0.06     0.02   0.324
  S962                       9.50       0.00       0.00       8.55       0.44       0.39       0.84        0.01     0.00   0.088
  S963                       9.50       0.00       0.00       8.12       0.85       0.32       1.17        0.00     0.00   0.123
  S964                       9.50       0.00       0.00       8.12       0.85       0.29       1.13        0.00     0.00   0.119
  S965                       9.50       0.00       0.00       8.58       0.43       0.22       0.65        0.00     0.00   0.069
  S966                       9.50       0.00       0.00       7.71       1.24       0.00       1.24        0.01     0.00   0.131
  S967                       9.50       0.00       0.00       7.02       2.10       0.12       2.21        0.03     0.01   0.233
  S968                       9.50       0.00       0.00       7.71       1.24       0.00       1.24        0.02     0.00   0.130
  S969                       9.50       0.00       0.00       8.14       0.84       0.17       1.01        0.02     0.00   0.106
  S970                       9.50       0.00       0.00       1.40       8.27       0.22       8.49        0.01     0.00   0.894
  S971                       9.50       0.00       0.00       8.55       0.44       0.38       0.83        0.01     0.00   0.087
  S972                       9.50       0.00       0.00       1.41       7.86       0.18       8.04        0.09     0.03   0.846
  S973                       9.50       0.00       0.00       8.15       0.84       0.12       0.96        0.01     0.00   0.101
  S974                       9.50       0.00       0.00       8.32       0.47       0.70       1.18        0.00     0.00   0.124
  S975                       9.50       0.00       0.00       4.85       4.37       0.37       4.75        0.02     0.01   0.500
  S976                       9.50       0.00       0.00       8.14       0.84       0.20       1.04        0.00     0.00   0.110
  S977                       9.50       0.00       0.00       8.85       0.20       0.10       0.30        0.00     0.00   0.031
  S978                       9.50       0.00       0.00       2.99       6.16       0.34       6.50        0.11     0.04   0.684
  S979                       9.50       0.00       0.00       7.02       2.10       0.12       2.22        0.03     0.01   0.233
  S980                       9.50       0.00       0.00       8.59       0.43       0.16       0.59        0.01     0.00   0.062
  S981                       9.50       0.00       0.00       8.55       0.45       0.41       0.86        0.01     0.00   0.090
  S982                       9.50       0.00       0.00       4.95       4.27       0.25       4.52        0.08     0.02   0.476
  S983                       9.50       0.00       0.00       8.15       0.84       0.13       0.97        0.01     0.00   0.102
  S984                       9.50       0.00       0.00       7.01       2.13       0.18       2.31        0.02     0.01   0.243
  S985                       9.50       0.00       0.00       8.82       0.21       0.29       0.50        0.00     0.00   0.053
  S986                       9.50       0.00       0.00       8.12       0.85       0.33       1.18        0.00     0.00   0.124
  S987                       9.50       0.00       0.00       7.00       2.16       0.23       2.39        0.02     0.01   0.252
  S988                       9.50       0.00       0.00       7.71       1.24       0.00       1.24        0.02     0.00   0.130
  S989                       9.50       0.00       0.00       8.59       0.43       0.18       0.61        0.01     0.00   0.065
  S990                       9.50       0.00       0.00       4.85       4.38       0.38       4.76        0.02     0.01   0.501
  S991                       9.50       0.00       0.00       7.71       1.25       0.00       1.25        0.00     0.00   0.131
  S992                       9.50       0.00       0.00       1.42       7.82       0.18       7.99        0.16     0.04   0.841
  S993                       9.50       0.00       0.00       8.11       0.85       0.38       1.23        0.00     0.00   0.129
  S994                       9.50       0.00       0.00       6.32       2.84       0.22       3.06        0.01     0.00   0.322
  S995                       9.50       0.00       0.00       8.14       0.84       0.21       1.05        0.01     0.00   0.111
  S996                       9.50       0.00       0.00       8.56       0.44       0.32       0.76        0.01     0.01   0.080
  S997                       9.50       0.00       0.00       8.15       0.84       0.13       0.97        0.01     0.00   0.102
  S998                       9.50       0.00       0.00       2.94       6.62       0.44       7.06        0.00     0.00   0.743
  S999                       9.50       0.00       0.00       6.31       2.87       0.28       3.15        0.02     0.01   0.332
  S1000                      9.50       0.00       0.00       8.14       0.84       0.17       1.01        0.01     0.00   0.106
  S1001                      9.50       0.00       0.00       1.40       8.03       0.20       8.23        0.02     0.01   0.866
  

  Analysis begun on:  Sat May 20 09:32:54 2023
  Analysis ended on:  Sat May 20 09:32:55 2023
  Total elapsed time: 00:00:01