
  OWA STORM WATER MANAGEMENT MODEL - VERSION v5.2.3 (OWA 2023-03-28)
  ------------------------------------------------------------

  WARNING 09: time series interval greater than recording interval for Rain Gage Raingage2
  WARNING 01: wet weather time step reduced to recording interval for Rain Gage Raingage2
  
  ****************
  Analysis Options
  ****************
  Flow Units ............... CMS
  Process Models:
    Rainfall/Runoff ........ YES
    RDII ................... NO
    Snowmelt ............... NO
    Groundwater ............ NO
    Flow Routing ........... NO
    Water Quality .......... NO
  Infiltration Method ...... MODIFIED_GREEN_AMPT
  Starting Date ............ 06/17/2022 00:00:00
  Ending Date .............. 06/17/2022 12:00:00
  Antecedent Dry Days ...... 0.0
  Report Time Step ......... 00:15:00
  Wet Time Step ............ 00:01:00
  Dry Time Step ............ 01:00:00
  
  
  **************************        Volume         Depth
  Runoff Quantity Continuity     hectare-m            mm
  **************************     ---------       -------
  Total Precipitation ......        12.757        12.667
  Evaporation Loss .........         0.000         0.000
  Infiltration Loss ........         7.250         7.199
  Surface Runoff ...........         4.518         4.486
  Final Storage ............         1.058         1.051
  Continuity Error (%) .....        -0.547
  
  
  **************************        Volume        Volume
  Flow Routing Continuity        hectare-m      10^6 ltr
  **************************     ---------     ---------
  Dry Weather Inflow .......         0.000         0.000
  Wet Weather Inflow .......         4.518        45.181
  Groundwater Inflow .......         0.000         0.000
  RDII Inflow ..............         0.000         0.000
  External Inflow ..........         0.000         0.000
  External Outflow .........         4.518        45.181
  Flooding Loss ............         0.000         0.000
  Evaporation Loss .........         0.000         0.000
  Exfiltration Loss ........         0.000         0.000
  Initial Stored Volume ....         0.000         0.000
  Final Stored Volume ......         0.000         0.000
  Continuity Error (%) .....         0.000
  
  
  ***************************
  Subcatchment Runoff Summary
  ***************************
  
  ------------------------------------------------------------------------------------------------------------------------------
                            Total      Total      Total      Total     Imperv       Perv      Total       Total     Peak  Runoff
                           Precip      Runon       Evap      Infil     Runoff     Runoff     Runoff      Runoff   Runoff   Coeff
  Subcatchment                 mm         mm         mm         mm         mm         mm         mm    10^6 ltr      CMS
  ------------------------------------------------------------------------------------------------------------------------------
  S1                        12.67       0.00       0.00       7.33       2.50       2.67       5.17        0.03     0.01   0.408
  S2                        12.67       0.00       0.00       5.08       5.71       1.64       7.35        0.12     0.03   0.580
  S3                        12.67       0.00       0.00       8.74       0.62       2.95       3.57        0.03     0.01   0.282
  S4                        12.67       0.00       0.00       8.19       1.72       0.35       2.08        0.01     0.00   0.164
  S5                        12.67       0.00       0.00       7.23       2.89       1.88       4.77        0.07     0.02   0.376
  S6                        12.67       0.00       0.00       8.44       1.16       1.92       3.08        0.02     0.00   0.243
  S7                        12.67       0.00       0.00       8.90       0.60       2.06       2.66        0.03     0.01   0.210
  S8                        12.67       0.00       0.00       8.20       1.72       0.28       2.00        0.02     0.00   0.158
  S9                        12.67       0.00       0.00       5.06       5.73       1.73       7.46        0.07     0.02   0.589
  S10                       12.67       0.00       0.00       5.05       5.76       1.78       7.54        0.14     0.04   0.595
  S11                       12.67       0.00       0.00       6.55       3.78       1.60       5.38        0.06     0.01   0.425
  S12                       12.67       0.00       0.00       8.66       0.64       3.35       3.99        0.01     0.00   0.315
  S13                       12.67       0.00       0.00       8.41       1.16       2.14       3.30        0.05     0.01   0.261
  S14                       12.67       0.00       0.00       9.28       0.27       1.33       1.60        0.03     0.01   0.127
  S15                       12.67       0.00       0.00       5.08       5.71       1.63       7.35        0.12     0.03   0.580
  S16                       12.67       0.00       0.00       6.49       3.83       1.95       5.78        0.08     0.02   0.456
  S17                       12.67       0.00       0.00       8.18       1.73       0.42       2.15        0.01     0.00   0.170
  S18                       12.67       0.00       0.00       8.92       0.59       1.91       2.50        0.04     0.01   0.197
  S19                       12.67       0.00       0.00       7.28       2.85       1.60       4.44        0.05     0.01   0.351
  S20                       12.67       0.00       0.00       5.05       5.77       1.81       7.58        0.04     0.01   0.599
  S21                       12.67       0.00       0.00       8.47       1.16       1.78       2.94        0.03     0.01   0.232
  S22                       12.67       0.00       0.00       8.50       1.16       1.55       2.71        0.05     0.01   0.214
  S23                       12.67       0.00       0.00       7.28       2.84       1.58       4.43        0.05     0.02   0.349
  S24                       12.67       0.00       0.00       3.02       8.48       1.46       9.94        0.06     0.03   0.785
  S25                       12.67       0.00       0.00       7.08       3.07       2.73       5.80        0.00     0.00   0.458
  S26                       12.67       0.00       0.00       6.43       3.93       2.25       6.19        0.01     0.00   0.488
  S27                       12.67       0.00       0.00       6.50       3.81       1.85       5.66        0.11     0.03   0.447
  S28                       12.67       0.00       0.00       8.20       1.72       0.25       1.97        0.01     0.00   0.156
  S29                       12.67       0.00       0.00       8.90       0.60       2.05       2.65        0.03     0.01   0.209
  S30                       12.67       0.00       0.00       5.06       5.73       1.73       7.46        0.14     0.03   0.589
  S31                       12.67       0.00       0.00       4.89       6.07       2.10       8.17        0.01     0.00   0.645
  S32                       12.67       0.00       0.00       8.39       1.16       2.21       3.37        0.03     0.01   0.266
  S33                       12.67       0.00       0.00       5.05       5.75       1.77       7.52        0.05     0.01   0.594
  S34                       12.67       0.00       0.00       8.40       1.16       2.19       3.36        0.05     0.01   0.265
  S35                       12.67       0.00       0.00       3.05       8.30       1.41       9.71        0.18     0.06   0.766
  S36                       12.67       0.00       0.00       7.30       2.83       1.49       4.33        0.03     0.01   0.341
  S37                       12.67       0.00       0.00       8.22       1.71       0.14       1.86        0.02     0.00   0.147
  S38                       12.67       0.00       0.00       8.21       1.72       0.17       1.88        0.01     0.00   0.149
  S39                       12.67       0.00       0.00       9.28       0.27       1.36       1.63        0.03     0.01   0.129
  S40                       12.67       0.00       0.00       5.04       5.79       1.86       7.65        0.09     0.03   0.604
  S41                       12.67       0.00       0.00       8.51       1.16       1.52       2.67        0.03     0.00   0.211
  S42                       12.67       0.00       0.00       3.05       8.31       1.41       9.72        0.17     0.06   0.768
  S43                       12.67       0.00       0.00       5.11       5.68       1.44       7.12        0.14     0.03   0.562
  S44                       12.67       0.00       0.00       8.20       1.72       0.25       1.97        0.03     0.01   0.155
  S45                       12.67       0.00       0.00       6.48       3.84       1.99       5.83        0.07     0.02   0.460
  S46                       12.67       0.00       0.00       8.21       1.72       0.19       1.90        0.02     0.00   0.150
  S47                       12.67       0.00       0.00       7.25       2.88       1.79       4.67        0.09     0.03   0.369
  S48                       12.67       0.00       0.00       8.78       0.61       2.73       3.34        0.06     0.02   0.263
  S49                       12.67       0.00       0.00       5.06       5.73       1.73       7.46        0.13     0.03   0.589
  S50                       12.67       0.00       0.00       7.31       2.83       1.43       4.26        0.08     0.02   0.336
  S51                       12.67       0.00       0.00       3.04       8.35       1.43       9.78        0.12     0.04   0.772
  S52                       12.67       0.00       0.00       8.31       1.18       2.70       3.88        0.01     0.00   0.306
  S53                       12.67       0.00       0.00       9.17       0.28       2.01       2.29        0.01     0.00   0.181
  S54                       12.67       0.00       0.00       6.44       3.92       2.23       6.15        0.03     0.01   0.486
  S55                       12.67       0.00       0.00       8.77       0.61       2.77       3.38        0.05     0.02   0.267
  S56                       12.67       0.00       0.00       8.17       1.73       0.50       2.24        0.00     0.00   0.177
  S57                       12.67       0.00       0.00       8.41       1.16       2.10       3.26        0.06     0.01   0.258
  S58                       12.67       0.00       0.00       7.25       2.87       1.78       4.65        0.03     0.01   0.367
  S59                       12.67       0.00       0.00       8.37       1.17       2.36       3.52        0.00     0.00   0.278
  S60                       12.67       0.00       0.00       9.20       0.28       1.86       2.13        0.01     0.00   0.168
  S61                       12.67       0.00       0.00       8.21       1.72       0.19       1.91        0.02     0.00   0.150
  S62                       12.67       0.00       0.00       8.20       1.72       0.29       2.01        0.01     0.00   0.159
  S63                       12.67       0.00       0.00       7.09       3.07       2.66       5.74        0.00     0.00   0.453
  S64                       12.67       0.00       0.00       8.41       1.16       2.11       3.27        0.06     0.01   0.258
  S65                       12.67       0.00       0.00       9.03       0.29       2.82       3.11        0.00     0.00   0.245
  S66                       12.67       0.00       0.00       8.37       1.17       2.34       3.51        0.01     0.00   0.277
  S67                       12.67       0.00       0.00       6.52       3.80       1.77       5.57        0.07     0.02   0.440
  S68                       12.67       0.00       0.00       8.26       1.20       2.95       4.15        0.00     0.00   0.327
  S69                       12.67       0.00       0.00       5.08       5.71       1.62       7.33        0.12     0.03   0.579
  S70                       12.67       0.00       0.00       3.05       8.32       1.42       9.74        0.15     0.05   0.769
  S71                       12.67       0.00       0.00       8.21       1.72       0.17       1.89        0.01     0.00   0.149
  S72                       12.67       0.00       0.00       4.97       5.92       2.00       7.92        0.02     0.01   0.625
  S73                       12.67       0.00       0.00       8.72       0.63       3.05       3.68        0.02     0.01   0.291
  S74                       12.67       0.00       0.00       1.43      10.78       0.74      11.52        0.04     0.02   0.910
  S75                       12.67       0.00       0.00       5.04       5.79       1.86       7.65        0.06     0.02   0.604
  S76                       12.67       0.00       0.00       1.44      10.53       0.70      11.23        0.22     0.06   0.886
  S77                       12.67       0.00       0.00       8.19       1.72       0.32       2.05        0.01     0.00   0.162
  S78                       12.67       0.00       0.00       8.21       1.72       0.18       1.90        0.01     0.00   0.150
  S79                       12.67       0.00       0.00       5.02       5.87       1.96       7.82        0.04     0.01   0.618
  S80                       12.67       0.00       0.00       8.21       1.72       0.21       1.93        0.02     0.00   0.152
  S81                       12.67       0.00       0.00       8.44       1.16       1.94       3.10        0.01     0.00   0.245
  S82                       12.67       0.00       0.00       7.25       2.87       1.79       4.66        0.03     0.01   0.368
  S83                       12.67       0.00       0.00       3.04       8.33       1.42       9.75        0.14     0.05   0.770
  S84                       12.67       0.00       0.00       5.05       5.76       1.80       7.57        0.04     0.01   0.597
  S85                       12.67       0.00       0.00       1.43      10.65       0.72      11.36        0.09     0.03   0.897
  S86                       12.67       0.00       0.00       8.80       0.61       2.61       3.22        0.01     0.00   0.254
  S87                       12.67       0.00       0.00       6.50       3.82       1.86       5.68        0.10     0.03   0.448
  S88                       12.67       0.00       0.00       8.79       0.61       2.70       3.31        0.06     0.02   0.261
  S89                       12.67       0.00       0.00       7.34       2.81       1.19       4.00        0.08     0.02   0.316
  S90                       12.67       0.00       0.00       8.48       1.16       1.72       2.88        0.04     0.01   0.227
  S91                       12.67       0.00       0.00       8.42       1.16       2.04       3.20        0.05     0.01   0.253
  S92                       12.67       0.00       0.00       8.89       0.60       2.13       2.72        0.03     0.01   0.215
  S93                       12.67       0.00       0.00       1.42      11.01       0.78      11.79        0.02     0.01   0.931
  S94                       12.67       0.00       0.00       8.91       0.59       2.00       2.59        0.04     0.01   0.205
  S95                       12.67       0.00       0.00       8.42       1.16       2.08       3.24        0.06     0.01   0.256
  S96                       12.67       0.00       0.00       8.38       1.17       2.28       3.45        0.04     0.01   0.272
  S97                       12.67       0.00       0.00       8.76       0.62       2.86       3.47        0.04     0.01   0.274
  S98                       12.67       0.00       0.00       5.06       5.73       1.71       7.44        0.15     0.04   0.588
  S99                       12.67       0.00       0.00       3.05       8.31       1.42       9.73        0.16     0.06   0.768
  S100                      12.67       0.00       0.00       5.06       5.74       1.74       7.47        0.13     0.03   0.590
  S101                      12.67       0.00       0.00       7.27       2.86       1.67       4.53        0.04     0.01   0.357
  S102                      12.67       0.00       0.00       7.33       2.81       1.25       4.07        0.06     0.01   0.321
  S103                      12.67       0.00       0.00       8.79       0.61       2.68       3.29        0.06     0.02   0.260
  S104                      12.67       0.00       0.00       8.43       1.16       1.99       3.15        0.06     0.01   0.249
  S105                      12.67       0.00       0.00       8.49       1.16       1.60       2.76        0.05     0.01   0.218
  S106                      12.67       0.00       0.00       9.21       0.27       1.77       2.05        0.01     0.00   0.162
  S107                      12.67       0.00       0.00       5.09       5.70       1.56       7.25        0.08     0.02   0.573
  S108                      12.67       0.00       0.00       8.21       1.72       0.19       1.91        0.02     0.00   0.151
  S109                      12.67       0.00       0.00       8.21       1.72       0.17       1.89        0.03     0.00   0.149
  S110                      12.67       0.00       0.00       8.43       1.16       2.00       3.16        0.06     0.01   0.249
  S111                      12.67       0.00       0.00       7.32       2.82       1.34       4.15        0.05     0.01   0.328
  S112                      12.67       0.00       0.00       6.49       3.83       1.94       5.77        0.08     0.02   0.456
  S113                      12.67       0.00       0.00       8.22       1.72       0.16       1.88        0.02     0.00   0.148
  S114                      12.67       0.00       0.00       8.88       0.60       2.18       2.78        0.02     0.01   0.219
  S115                      12.67       0.00       0.00       3.04       8.33       1.42       9.75        0.15     0.05   0.769
  S116                      12.67       0.00       0.00       9.18       0.28       2.00       2.28        0.01     0.00   0.180
  S117                      12.67       0.00       0.00       7.34       2.81       1.20       4.00        0.08     0.02   0.316
  S118                      12.67       0.00       0.00       8.75       0.62       2.87       3.49        0.04     0.01   0.276
  S119                      12.67       0.00       0.00       1.43      10.79       0.74      11.53        0.04     0.02   0.910
  S120                      12.67       0.00       0.00       8.20       1.72       0.24       1.96        0.01     0.00   0.155
  S121                      12.67       0.00       0.00       8.39       1.16       2.22       3.39        0.01     0.00   0.268
  S122                      12.67       0.00       0.00       7.24       2.88       1.84       4.72        0.03     0.01   0.372
  S123                      12.67       0.00       0.00       7.23       2.89       1.89       4.79        0.07     0.02   0.378
  S124                      12.67       0.00       0.00       8.22       1.22       3.16       4.39        0.00     0.00   0.346
  S125                      12.67       0.00       0.00       8.78       0.61       2.76       3.37        0.05     0.02   0.266
  S126                      12.67       0.00       0.00       5.03       5.81       1.88       7.69        0.07     0.02   0.607
  S127                      12.67       0.00       0.00       8.92       0.59       1.95       2.54        0.04     0.01   0.201
  S128                      12.67       0.00       0.00       7.33       2.81       1.29       4.10        0.06     0.01   0.324
  S129                      12.67       0.00       0.00       8.72       0.63       3.06       3.68        0.02     0.01   0.291
  S130                      12.67       0.00       0.00       9.19       0.28       1.92       2.19        0.01     0.00   0.173
  S131                      12.67       0.00       0.00       8.47       1.16       1.76       2.91        0.03     0.01   0.230
  S132                      12.67       0.00       0.00       9.22       0.27       1.72       1.99        0.01     0.00   0.157
  S133                      12.67       0.00       0.00       8.22       1.72       0.15       1.87        0.03     0.01   0.148
  S134                      12.67       0.00       0.00       8.21       1.72       0.19       1.91        0.02     0.00   0.150
  S135                      12.67       0.00       0.00       8.20       1.72       0.28       2.01        0.02     0.00   0.158
  S136                      12.67       0.00       0.00       8.16       1.74       0.57       2.31        0.00     0.00   0.182
  S137                      12.67       0.00       0.00       6.46       3.88       2.11       5.99        0.04     0.01   0.473
  S138                      12.67       0.00       0.00       8.90       0.60       2.05       2.64        0.03     0.01   0.209
  S139                      12.67       0.00       0.00       3.04       8.37       1.43       9.80        0.11     0.04   0.774
  S140                      12.67       0.00       0.00       9.29       0.27       1.31       1.58        0.03     0.01   0.125
  S141                      12.67       0.00       0.00       8.89       0.60       2.13       2.72        0.03     0.01   0.215
  S142                      12.67       0.00       0.00       6.51       3.81       1.85       5.66        0.11     0.03   0.447
  S143                      12.67       0.00       0.00       8.21       1.72       0.19       1.91        0.02     0.00   0.151
  S144                      12.67       0.00       0.00       8.22       1.72       0.16       1.88        0.03     0.00   0.148
  S145                      12.67       0.00       0.00       8.71       0.63       3.10       3.73        0.02     0.01   0.294
  S146                      12.67       0.00       0.00       8.20       1.72       0.28       2.00        0.01     0.00   0.158
  S147                      12.67       0.00       0.00       7.24       2.88       1.82       4.70        0.05     0.02   0.371
  S148                      12.67       0.00       0.00       8.20       1.72       0.26       1.98        0.03     0.01   0.156
  S149                      12.67       0.00       0.00       7.15       3.01       2.36       5.37        0.01     0.00   0.424
  S150                      12.67       0.00       0.00       7.22       2.91       1.96       4.87        0.01     0.00   0.384
  S151                      12.67       0.00       0.00       7.24       2.88       1.82       4.70        0.03     0.01   0.371
  S152                      12.67       0.00       0.00       8.35       1.17       2.45       3.62        0.02     0.00   0.286
  S153                      12.67       0.00       0.00       8.21       1.72       0.23       1.95        0.01     0.00   0.154
  S154                      12.67       0.00       0.00       6.45       3.89       2.14       6.03        0.05     0.02   0.476
  S155                      12.67       0.00       0.00       6.41       3.98       2.35       6.33        0.02     0.01   0.500
  S156                      12.67       0.00       0.00       6.52       3.80       1.75       5.55        0.08     0.02   0.438
  S157                      12.67       0.00       0.00       9.24       0.27       1.59       1.86        0.02     0.00   0.147
  S158                      12.67       0.00       0.00       8.48       1.16       1.69       2.85        0.04     0.01   0.225
  S159                      12.67       0.00       0.00       8.21       1.72       0.23       1.95        0.01     0.00   0.154
  S160                      12.67       0.00       0.00       8.76       0.62       2.86       3.48        0.04     0.01   0.275
  S161                      12.67       0.00       0.00       7.18       2.95       2.14       5.09        0.03     0.01   0.402
  S162                      12.67       0.00       0.00       8.22       1.72       0.16       1.87        0.02     0.00   0.148
  S163                      12.67       0.00       0.00       8.54       1.15       1.30       2.46        0.04     0.01   0.194
  S164                      12.67       0.00       0.00       8.22       1.72       0.15       1.87        0.04     0.01   0.147
  S165                      12.67       0.00       0.00       8.77       0.61       2.80       3.41        0.04     0.01   0.270
  S166                      12.67       0.00       0.00       8.21       1.72       0.17       1.88        0.01     0.00   0.149
  S167                      12.67       0.00       0.00       8.30       1.18       2.71       3.89        0.00     0.00   0.307
  S168                      12.67       0.00       0.00       8.36       1.17       2.39       3.56        0.03     0.01   0.281
  S169                      12.67       0.00       0.00       7.31       2.83       1.41       4.24        0.04     0.01   0.334
  S170                      12.67       0.00       0.00       8.24       1.20       3.03       4.23        0.00     0.00   0.334
  S171                      12.67       0.00       0.00       7.23       2.89       1.89       4.78        0.04     0.01   0.377
  S172                      12.67       0.00       0.00       8.17       1.73       0.48       2.21        0.00     0.00   0.175
  S173                      12.67       0.00       0.00       8.21       1.72       0.20       1.91        0.02     0.00   0.151
  S174                      12.67       0.00       0.00       1.43      10.69       0.73      11.42        0.07     0.02   0.901
  S175                      12.67       0.00       0.00       6.47       3.85       2.02       5.88        0.06     0.02   0.464
  S176                      12.67       0.00       0.00       5.04       5.79       1.86       7.65        0.01     0.00   0.604
  S177                      12.67       0.00       0.00       8.32       1.18       2.62       3.79        0.01     0.00   0.299
  S178                      12.67       0.00       0.00       7.19       2.94       2.09       5.02        0.01     0.00   0.397
  S179                      12.67       0.00       0.00       9.27       0.27       1.41       1.69        0.03     0.01   0.133
  S180                      12.67       0.00       0.00       8.90       0.60       2.05       2.65        0.03     0.01   0.209
  S181                      12.67       0.00       0.00       8.76       0.61       2.82       3.43        0.04     0.01   0.271
  S182                      12.67       0.00       0.00       8.78       0.61       2.74       3.35        0.05     0.02   0.264
  S183                      12.67       0.00       0.00       8.33       1.17       2.55       3.73        0.01     0.00   0.294
  S184                      12.67       0.00       0.00       3.03       8.38       1.44       9.82        0.10     0.04   0.775
  S185                      12.67       0.00       0.00       6.53       3.79       1.73       5.52        0.09     0.02   0.436
  S186                      12.67       0.00       0.00       8.22       1.72       0.15       1.87        0.04     0.01   0.147
  S187                      12.67       0.00       0.00       8.31       1.18       2.69       3.87        0.01     0.00   0.305
  S188                      12.67       0.00       0.00       8.38       1.17       2.29       3.46        0.00     0.00   0.273
  S189                      12.67       0.00       0.00       8.44       1.16       1.92       3.08        0.01     0.00   0.243
  S190                      12.67       0.00       0.00       8.76       0.62       2.85       3.47        0.04     0.01   0.274
  S191                      12.67       0.00       0.00       8.35       1.17       2.46       3.63        0.01     0.00   0.287
  S192                      12.67       0.00       0.00       8.21       1.72       0.19       1.91        0.02     0.00   0.150
  S193                      12.67       0.00       0.00       8.70       0.63       3.18       3.82        0.01     0.00   0.301
  S194                      12.67       0.00       0.00       9.27       0.27       1.43       1.70        0.02     0.00   0.134
  S195                      12.67       0.00       0.00       8.50       1.16       1.55       2.71        0.05     0.01   0.214
  S196                      12.67       0.00       0.00       8.33       1.17       2.58       3.75        0.02     0.00   0.296
  S197                      12.67       0.00       0.00       5.06       5.74       1.74       7.48        0.12     0.03   0.591
  S198                      12.67       0.00       0.00       8.22       1.71       0.13       1.84        0.02     0.00   0.146
  S199                      12.67       0.00       0.00       8.21       1.72       0.17       1.88        0.03     0.00   0.149
  S200                      12.67       0.00       0.00       8.47       1.16       1.72       2.88        0.04     0.01   0.227
  S201                      12.67       0.00       0.00       8.93       0.59       1.86       2.46        0.05     0.01   0.194
  S202                      12.67       0.00       0.00       7.30       2.83       1.49       4.32        0.07     0.02   0.341
  S203                      12.67       0.00       0.00       6.55       3.78       1.60       5.38        0.06     0.01   0.425
  S204                      12.67       0.00       0.00       3.04       8.37       1.44       9.81        0.10     0.04   0.774
  S205                      12.67       0.00       0.00       8.21       1.72       0.23       1.95        0.01     0.00   0.154
  S206                      12.67       0.00       0.00       8.78       0.61       2.75       3.36        0.05     0.02   0.265
  S207                      12.67       0.00       0.00       8.85       0.60       2.32       2.92        0.02     0.00   0.231
  S208                      12.67       0.00       0.00       8.91       0.59       1.96       2.55        0.04     0.01   0.201
  S209                      12.67       0.00       0.00       1.43      10.81       0.75      11.55        0.04     0.02   0.912
  S210                      12.67       0.00       0.00       8.80       0.61       2.60       3.20        0.01     0.00   0.253
  S211                      12.67       0.00       0.00       1.44      10.58       0.71      11.28        0.15     0.04   0.891
  S212                      12.67       0.00       0.00       8.19       1.73       0.36       2.08        0.01     0.00   0.164
  S213                      12.67       0.00       0.00       8.37       1.17       2.36       3.52        0.03     0.01   0.278
  S214                      12.67       0.00       0.00       8.16       1.73       0.53       2.26        0.00     0.00   0.178
  S215                      12.67       0.00       0.00       3.03       8.45       1.46       9.90        0.07     0.03   0.782
  S216                      12.67       0.00       0.00       3.04       8.34       1.42       9.76        0.13     0.05   0.771
  S217                      12.67       0.00       0.00       8.44       1.16       1.96       3.12        0.02     0.00   0.246
  S218                      12.67       0.00       0.00       7.21       2.91       1.98       4.89        0.01     0.00   0.386
  S219                      12.67       0.00       0.00       8.40       1.16       2.14       3.31        0.01     0.00   0.261
  S220                      12.67       0.00       0.00       6.54       3.78       1.65       5.43        0.05     0.01   0.429
  S221                      12.67       0.00       0.00       5.03       5.82       1.90       7.72        0.04     0.01   0.610
  S222                      12.67       0.00       0.00       6.45       3.89       2.13       6.02        0.05     0.02   0.475
  S223                      12.67       0.00       0.00       8.91       0.59       1.98       2.57        0.04     0.01   0.203
  S224                      12.67       0.00       0.00       5.08       5.70       1.60       7.31        0.14     0.03   0.577
  S225                      12.67       0.00       0.00       8.40       1.16       2.16       3.33        0.05     0.01   0.263
  S226                      12.67       0.00       0.00       8.22       1.72       0.15       1.87        0.04     0.01   0.147
  S227                      12.67       0.00       0.00       9.19       0.28       1.89       2.17        0.01     0.00   0.171
  S228                      12.67       0.00       0.00       7.18       2.96       2.18       5.13        0.00     0.00   0.405
  S229                      12.67       0.00       0.00       7.27       2.86       1.67       4.53        0.08     0.02   0.358
  S230                      12.67       0.00       0.00       8.21       1.72       0.21       1.92        0.02     0.00   0.152
  S231                      12.67       0.00       0.00       7.18       2.96       2.20       5.16        0.02     0.01   0.407
  S232                      12.67       0.00       0.00       6.51       3.81       1.82       5.63        0.03     0.01   0.445
  S233                      12.67       0.00       0.00       8.78       0.61       2.74       3.35        0.05     0.02   0.265
  S234                      12.67       0.00       0.00       8.43       1.16       2.00       3.16        0.02     0.00   0.249
  S235                      12.67       0.00       0.00       6.49       3.84       1.95       5.79        0.07     0.02   0.457
  S236                      12.67       0.00       0.00       7.12       3.05       2.50       5.55        0.00     0.00   0.438
  S237                      12.67       0.00       0.00       4.96       5.94       2.02       7.96        0.02     0.01   0.629
  S238                      12.67       0.00       0.00       8.34       1.17       2.49       3.66        0.02     0.01   0.289
  S239                      12.67       0.00       0.00       7.21       2.92       2.00       4.92        0.03     0.01   0.388
  S240                      12.67       0.00       0.00       3.03       8.38       1.44       9.82        0.10     0.04   0.775
  S241                      12.67       0.00       0.00       5.03       5.80       1.87       7.67        0.05     0.02   0.605
  S242                      12.67       0.00       0.00       8.46       1.16       1.83       2.98        0.03     0.01   0.236
  S243                      12.67       0.00       0.00       8.46       1.16       1.84       3.00        0.03     0.01   0.237
  S244                      12.67       0.00       0.00       8.90       0.60       2.03       2.62        0.03     0.01   0.207
  S245                      12.67       0.00       0.00       8.91       0.59       2.00       2.60        0.04     0.01   0.205
  S246                      12.67       0.00       0.00       1.44      10.54       0.70      11.23        0.21     0.06   0.887
  S247                      12.67       0.00       0.00       6.49       3.83       1.91       5.73        0.09     0.03   0.453
  S248                      12.67       0.00       0.00       8.20       1.72       0.24       1.96        0.03     0.01   0.155
  S249                      12.67       0.00       0.00       8.37       1.17       2.32       3.48        0.03     0.01   0.275
  S250                      12.67       0.00       0.00       8.47       1.16       1.73       2.88        0.04     0.01   0.228
  S251                      12.67       0.00       0.00       8.21       1.72       0.20       1.92        0.01     0.00   0.152
  S252                      12.67       0.00       0.00       8.85       0.60       2.31       2.91        0.02     0.00   0.230
  S253                      12.67       0.00       0.00       6.56       3.77       1.52       5.29        0.08     0.02   0.417
  S254                      12.67       0.00       0.00       8.72       0.63       3.08       3.71        0.02     0.01   0.293
  S255                      12.67       0.00       0.00       5.02       5.84       1.92       7.76        0.02     0.01   0.613
  S256                      12.67       0.00       0.00       8.77       0.61       2.78       3.39        0.01     0.00   0.268
  S257                      12.67       0.00       0.00       8.22       1.71       0.11       1.82        0.03     0.00   0.144
  S258                      12.67       0.00       0.00       8.74       0.62       2.96       3.58        0.03     0.01   0.283
  S259                      12.67       0.00       0.00       6.42       3.97       2.32       6.28        0.01     0.00   0.496
  S260                      12.67       0.00       0.00       8.19       1.73       0.36       2.09        0.01     0.00   0.165
  S261                      12.67       0.00       0.00       5.10       5.69       1.51       7.20        0.10     0.02   0.568
  S262                      12.67       0.00       0.00       6.52       3.80       1.77       5.57        0.03     0.01   0.440
  S263                      12.67       0.00       0.00       8.48       0.65       3.57       4.22        0.00     0.00   0.333
  S264                      12.67       0.00       0.00       1.44      10.53       0.70      11.23        0.22     0.06   0.886
  S265                      12.67       0.00       0.00       8.33       1.17       2.55       3.72        0.00     0.00   0.294
  S266                      12.67       0.00       0.00       6.46       3.87       2.09       5.96        0.04     0.01   0.471
  S267                      12.67       0.00       0.00       8.43       1.16       1.99       3.15        0.02     0.00   0.249
  S268                      12.67       0.00       0.00       8.40       1.16       2.16       3.33        0.01     0.00   0.263
  S269                      12.67       0.00       0.00       8.66       0.65       3.37       4.02        0.01     0.00   0.317
  S270                      12.67       0.00       0.00       8.50       1.16       1.56       2.72        0.05     0.01   0.214
  S271                      12.67       0.00       0.00       5.11       5.68       1.48       7.16        0.12     0.02   0.565
  S272                      12.67       0.00       0.00       8.22       1.71       0.12       1.83        0.03     0.00   0.145
  S273                      12.67       0.00       0.00       8.48       1.16       1.70       2.85        0.04     0.01   0.225
  S274                      12.67       0.00       0.00       8.22       1.71       0.12       1.83        0.03     0.00   0.144
  S275                      12.67       0.00       0.00       7.13       3.03       2.44       5.47        0.01     0.00   0.432
  S276                      12.67       0.00       0.00       5.06       5.75       1.76       7.50        0.11     0.03   0.592
  S277                      12.67       0.00       0.00       8.22       1.72       0.15       1.86        0.04     0.01   0.147
  S278                      12.67       0.00       0.00       8.20       1.72       0.25       1.97        0.03     0.01   0.156
  S279                      12.67       0.00       0.00       8.31       1.18       2.66       3.84        0.01     0.00   0.303
  S280                      12.67       0.00       0.00       8.90       0.60       2.03       2.63        0.03     0.01   0.208
  S281                      12.67       0.00       0.00       3.01       8.66       1.51      10.17        0.02     0.01   0.803
  S282                      12.67       0.00       0.00       8.46       1.16       1.82       2.98        0.01     0.00   0.235
  S283                      12.67       0.00       0.00       1.44      10.53       0.70      11.23        0.22     0.06   0.886
  S284                      12.67       0.00       0.00       8.38       1.16       2.26       3.43        0.04     0.01   0.271
  S285                      12.67       0.00       0.00       8.32       1.17       2.59       3.77        0.02     0.00   0.298
  S286                      12.67       0.00       0.00       6.53       3.79       1.71       5.50        0.09     0.02   0.434
  S287                      12.67       0.00       0.00       8.22       1.71       0.13       1.85        0.02     0.00   0.146
  S288                      12.67       0.00       0.00       6.42       3.98       2.33       6.31        0.00     0.00   0.498
  S289                      12.67       0.00       0.00       8.44       1.16       1.93       3.09        0.02     0.00   0.244
  S290                      12.67       0.00       0.00       8.78       0.61       2.71       3.32        0.01     0.00   0.262
  S291                      12.67       0.00       0.00       8.78       0.61       2.71       3.32        0.06     0.02   0.262
  S292                      12.67       0.00       0.00       6.48       3.84       1.98       5.82        0.10     0.03   0.459
  S293                      12.67       0.00       0.00       8.22       1.72       0.15       1.87        0.02     0.00   0.147
  S294                      12.67       0.00       0.00       7.24       2.88       1.83       4.72        0.08     0.03   0.372
  S295                      12.67       0.00       0.00       1.44      10.55       0.70      11.25        0.18     0.05   0.888
  S296                      12.67       0.00       0.00       8.21       1.72       0.21       1.93        0.02     0.00   0.153
  S297                      12.67       0.00       0.00       8.20       1.72       0.25       1.97        0.03     0.01   0.156
  S298                      12.67       0.00       0.00       8.73       0.62       3.02       3.64        0.02     0.01   0.287
  S299                      12.67       0.00       0.00       7.32       2.82       1.37       4.19        0.05     0.01   0.331
  S300                      12.67       0.00       0.00       6.56       3.77       1.54       5.31        0.07     0.02   0.419
  S301                      12.67       0.00       0.00       6.39       4.05       2.46       6.51        0.01     0.00   0.514
  S302                      12.67       0.00       0.00       8.41       1.16       2.14       3.30        0.01     0.00   0.260
  S303                      12.67       0.00       0.00       8.93       0.59       1.87       2.46        0.05     0.01   0.195
  S304                      12.67       0.00       0.00       8.40       1.16       2.16       3.33        0.01     0.00   0.263
  S305                      12.67       0.00       0.00       8.35       1.17       2.44       3.61        0.01     0.00   0.285
  S306                      12.67       0.00       0.00       8.49       1.16       1.65       2.80        0.04     0.01   0.221
  S307                      12.67       0.00       0.00       8.41       1.16       2.14       3.30        0.01     0.00   0.260
  S308                      12.67       0.00       0.00       6.52       3.80       1.76       5.56        0.08     0.02   0.439
  S309                      12.67       0.00       0.00       5.00       5.89       1.98       7.86        0.02     0.01   0.621
  S310                      12.67       0.00       0.00       6.48       3.84       1.97       5.81        0.02     0.00   0.459
  S311                      12.67       0.00       0.00       8.48       1.16       1.70       2.85        0.04     0.01   0.225
  S312                      12.67       0.00       0.00       8.41       1.16       2.10       3.26        0.06     0.01   0.258
  S313                      12.67       0.00       0.00       6.49       3.83       1.92       5.74        0.09     0.02   0.453
  S314                      12.67       0.00       0.00       5.05       5.75       1.78       7.54        0.14     0.04   0.595
  S315                      12.67       0.00       0.00       8.21       1.72       0.22       1.94        0.01     0.00   0.153
  S316                      12.67       0.00       0.00       8.92       0.59       1.91       2.51        0.04     0.01   0.198
  S317                      12.67       0.00       0.00       8.89       0.60       2.11       2.71        0.03     0.01   0.214
  S318                      12.67       0.00       0.00       8.93       0.59       1.89       2.48        0.05     0.01   0.196
  S319                      12.67       0.00       0.00       5.07       5.72       1.67       7.39        0.10     0.02   0.583
  S320                      12.67       0.00       0.00       7.20       2.92       2.03       4.96        0.03     0.01   0.391
  S321                      12.67       0.00       0.00       8.20       1.72       0.30       2.02        0.01     0.00   0.159
  S322                      12.67       0.00       0.00       8.81       0.61       2.59       3.19        0.01     0.00   0.252
  S323                      12.67       0.00       0.00       8.21       1.72       0.18       1.90        0.02     0.00   0.150
  S324                      12.67       0.00       0.00       6.53       3.79       1.70       5.49        0.10     0.02   0.433
  S325                      12.67       0.00       0.00       8.50       1.16       1.59       2.74        0.05     0.01   0.217
  S326                      12.67       0.00       0.00       7.22       2.90       1.92       4.82        0.02     0.01   0.381
  S327                      12.67       0.00       0.00       6.46       3.87       2.07       5.94        0.07     0.02   0.469
  S328                      12.67       0.00       0.00       7.28       2.84       1.57       4.42        0.06     0.02   0.349
  S329                      12.67       0.00       0.00       6.47       3.86       2.04       5.90        0.08     0.03   0.466
  S330                      12.67       0.00       0.00       8.50       1.16       1.57       2.72        0.05     0.01   0.215
  S331                      12.67       0.00       0.00       8.35       1.17       2.43       3.60        0.02     0.01   0.284
  S332                      12.67       0.00       0.00       7.35       2.81       1.18       3.98        0.08     0.02   0.315
  S333                      12.67       0.00       0.00       6.55       3.78       1.58       5.36        0.06     0.01   0.423
  S334                      12.67       0.00       0.00       6.46       3.87       2.09       5.96        0.04     0.01   0.471
  S335                      12.67       0.00       0.00       8.74       0.62       2.97       3.59        0.03     0.01   0.284
  S336                      12.67       0.00       0.00       6.48       3.85       2.00       5.85        0.06     0.02   0.462
  S337                      12.67       0.00       0.00       8.38       1.17       2.29       3.46        0.00     0.00   0.273
  S338                      12.67       0.00       0.00       1.44      10.54       0.70      11.24        0.20     0.05   0.887
  S339                      12.67       0.00       0.00       8.13       1.24       3.28       4.53        0.00     0.00   0.357
  S340                      12.67       0.00       0.00       8.49       1.16       1.66       2.81        0.04     0.01   0.222
  S341                      12.67       0.00       0.00       8.71       0.63       3.13       3.76        0.02     0.01   0.297
  S342                      12.67       0.00       0.00       1.44      10.58       0.71      11.28        0.14     0.04   0.891
  S343                      12.67       0.00       0.00       6.49       3.83       1.94       5.77        0.08     0.02   0.456
  S344                      12.67       0.00       0.00       7.18       2.96       2.18       5.14        0.03     0.01   0.406
  S345                      12.67       0.00       0.00       8.44       1.16       1.90       3.06        0.02     0.01   0.242
  S346                      12.67       0.00       0.00       8.39       1.16       2.25       3.42        0.04     0.01   0.270
  S347                      12.67       0.00       0.00       8.50       1.16       1.55       2.70        0.05     0.01   0.213
  S348                      12.67       0.00       0.00       8.89       0.60       2.09       2.69        0.03     0.01   0.212
  S349                      12.67       0.00       0.00       9.28       0.27       1.37       1.65        0.03     0.01   0.130
  S350                      12.67       0.00       0.00       8.42       1.16       2.06       3.22        0.02     0.00   0.254
  S351                      12.67       0.00       0.00       6.57       3.76       1.45       5.22        0.10     0.02   0.412
  S352                      12.67       0.00       0.00       8.89       0.60       2.08       2.68        0.03     0.01   0.211
  S353                      12.67       0.00       0.00       8.22       1.72       0.15       1.87        0.04     0.01   0.147
  S354                      12.67       0.00       0.00       8.36       1.17       2.38       3.54        0.03     0.01   0.280
  S355                      12.67       0.00       0.00       6.53       3.80       1.73       5.53        0.08     0.02   0.437
  S356                      12.67       0.00       0.00       8.48       1.16       1.70       2.86        0.04     0.01   0.226
  S357                      12.67       0.00       0.00       8.40       1.16       2.19       3.36        0.01     0.00   0.265
  S358                      12.67       0.00       0.00       8.93       0.59       1.89       2.48        0.05     0.01   0.196
  S359                      12.67       0.00       0.00       8.28       1.19       2.86       4.05        0.00     0.00   0.320
  S360                      12.67       0.00       0.00       8.50       1.16       1.58       2.74        0.05     0.01   0.216
  S361                      12.67       0.00       0.00       8.49       1.16       1.61       2.77        0.05     0.01   0.218
  S362                      12.67       0.00       0.00       8.53       1.15       1.34       2.50        0.04     0.01   0.197
  S363                      12.67       0.00       0.00       8.40       1.16       2.16       3.32        0.04     0.01   0.262
  S364                      12.67       0.00       0.00       9.26       0.27       1.50       1.77        0.02     0.00   0.140
  S365                      12.67       0.00       0.00       8.47       1.16       1.73       2.89        0.04     0.01   0.228
  S366                      12.67       0.00       0.00       9.27       0.27       1.43       1.70        0.02     0.00   0.135
  S367                      12.67       0.00       0.00       8.44       1.16       1.90       3.06        0.02     0.01   0.242
  S368                      12.67       0.00       0.00       9.24       0.27       1.59       1.87        0.02     0.00   0.147
  S369                      12.67       0.00       0.00       3.05       8.32       1.42       9.74        0.15     0.05   0.769
  S370                      12.67       0.00       0.00       5.06       5.73       1.73       7.46        0.14     0.03   0.589
  S371                      12.67       0.00       0.00       6.41       3.99       2.36       6.35        0.02     0.01   0.501
  S372                      12.67       0.00       0.00       8.46       1.16       1.80       2.96        0.03     0.01   0.234
  S373                      12.67       0.00       0.00       1.44      10.54       0.70      11.23        0.21     0.06   0.887
  S374                      12.67       0.00       0.00       4.93       5.99       2.05       8.05        0.01     0.01   0.635
  S375                      12.67       0.00       0.00       6.44       3.92       2.22       6.14        0.02     0.01   0.485
  S376                      12.67       0.00       0.00       3.05       8.29       1.41       9.70        0.19     0.06   0.766
  S377                      12.67       0.00       0.00       8.43       1.16       2.00       3.16        0.02     0.00   0.250
  S378                      12.67       0.00       0.00       8.41       1.16       2.09       3.25        0.06     0.01   0.257
  S379                      12.67       0.00       0.00       8.21       1.72       0.23       1.95        0.01     0.00   0.154
  S380                      12.67       0.00       0.00       7.19       2.95       2.13       5.07        0.03     0.01   0.400
  S381                      12.67       0.00       0.00       8.47       1.16       1.77       2.93        0.03     0.01   0.231
  S382                      12.67       0.00       0.00       7.30       2.83       1.45       4.28        0.08     0.02   0.338
  S383                      12.67       0.00       0.00       8.12       1.77       0.80       2.56        0.00     0.00   0.202
  S384                      12.67       0.00       0.00       6.50       3.82       1.86       5.68        0.05     0.01   0.448
  S385                      12.67       0.00       0.00       8.66       0.65       3.37       4.02        0.01     0.00   0.317
  S386                      12.67       0.00       0.00       5.09       5.70       1.60       7.30        0.06     0.01   0.576
  S387                      12.67       0.00       0.00       8.31       1.18       2.65       3.83        0.01     0.00   0.302
  S388                      12.67       0.00       0.00       8.31       1.18       2.69       3.87        0.01     0.00   0.305
  S389                      12.67       0.00       0.00       8.93       0.59       1.88       2.48        0.05     0.01   0.196
  S390                      12.67       0.00       0.00       5.06       5.73       1.71       7.44        0.03     0.01   0.588
  S391                      12.67       0.00       0.00       9.28       0.27       1.32       1.59        0.03     0.01   0.126
  S392                      12.67       0.00       0.00       8.19       1.72       0.32       2.04        0.00     0.00   0.161
  S393                      12.67       0.00       0.00       8.48       1.16       1.68       2.84        0.04     0.01   0.224
  S394                      12.67       0.00       0.00       5.10       5.69       1.50       7.18        0.11     0.02   0.567
  S395                      12.67       0.00       0.00       1.43      10.81       0.75      11.56        0.04     0.02   0.913
  S396                      12.67       0.00       0.00       7.16       2.99       2.29       5.27        0.02     0.01   0.416
  S397                      12.67       0.00       0.00       8.22       1.71       0.13       1.85        0.02     0.00   0.146
  S398                      12.67       0.00       0.00       6.45       3.90       2.17       6.07        0.04     0.02   0.480
  S399                      12.67       0.00       0.00       8.19       1.72       0.31       2.03        0.01     0.00   0.160
  S400                      12.67       0.00       0.00       8.43       1.16       1.97       3.13        0.02     0.00   0.247
  S401                      12.67       0.00       0.00       6.55       3.78       1.60       5.38        0.06     0.01   0.425
  S402                      12.67       0.00       0.00       8.91       0.59       1.98       2.57        0.04     0.01   0.203
  S403                      12.67       0.00       0.00       5.07       5.73       1.71       7.44        0.08     0.02   0.587
  S404                      12.67       0.00       0.00       7.25       2.87       1.78       4.66        0.06     0.02   0.368
  S405                      12.67       0.00       0.00       5.04       5.78       1.84       7.62        0.07     0.02   0.601
  S406                      12.67       0.00       0.00       8.41       1.16       2.10       3.27        0.06     0.01   0.258
  S407                      12.67       0.00       0.00       8.22       1.71       0.11       1.82        0.04     0.00   0.144
  S408                      12.67       0.00       0.00       8.20       1.72       0.25       1.97        0.01     0.00   0.156
  S409                      12.67       0.00       0.00       8.41       1.16       2.13       3.29        0.05     0.01   0.260
  S410                      12.67       0.00       0.00       8.21       1.72       0.20       1.92        0.02     0.00   0.152
  S411                      12.67       0.00       0.00       8.44       1.16       1.91       3.07        0.02     0.01   0.242
  S412                      12.67       0.00       0.00       8.49       1.16       1.65       2.81        0.04     0.01   0.222
  S413                      12.67       0.00       0.00       8.31       1.18       2.68       3.86        0.01     0.00   0.304
  S414                      12.67       0.00       0.00       8.49       1.16       1.62       2.78        0.02     0.00   0.219
  S415                      12.67       0.00       0.00       7.24       2.88       1.82       4.70        0.05     0.02   0.371
  S416                      12.67       0.00       0.00       5.03       5.83       1.91       7.74        0.02     0.01   0.611
  S417                      12.67       0.00       0.00       6.54       3.79       1.66       5.45        0.05     0.01   0.430
  S418                      12.67       0.00       0.00       8.40       1.16       2.14       3.31        0.01     0.00   0.261
  S419                      12.67       0.00       0.00       7.18       2.96       2.17       5.13        0.03     0.01   0.405
  S420                      12.67       0.00       0.00       3.04       8.33       1.42       9.75        0.14     0.05   0.770
  S421                      12.67       0.00       0.00       7.28       2.85       1.61       4.46        0.02     0.01   0.352
  S422                      12.67       0.00       0.00       6.47       3.86       2.06       5.92        0.07     0.02   0.468
  S423                      12.67       0.00       0.00       7.30       2.83       1.47       4.30        0.07     0.02   0.340
  S424                      12.67       0.00       0.00       8.39       1.16       2.21       3.37        0.04     0.01   0.266
  S425                      12.67       0.00       0.00       8.30       1.18       2.71       3.89        0.01     0.00   0.307
  S426                      12.67       0.00       0.00       5.11       5.68       1.48       7.17        0.12     0.02   0.566
  S427                      12.67       0.00       0.00       8.21       1.72       0.19       1.90        0.02     0.00   0.150
  S428                      12.67       0.00       0.00       8.20       1.72       0.30       2.02        0.02     0.00   0.159
  S429                      12.67       0.00       0.00       8.20       1.72       0.29       2.01        0.01     0.00   0.159
  S430                      12.67       0.00       0.00       6.51       3.81       1.80       5.61        0.03     0.01   0.443
  S431                      12.67       0.00       0.00       8.21       1.72       0.22       1.94        0.01     0.00   0.153
  S432                      12.67       0.00       0.00       6.56       3.77       1.55       5.32        0.07     0.02   0.420
  S433                      12.67       0.00       0.00       8.20       1.72       0.29       2.02        0.01     0.00   0.159
  S434                      12.67       0.00       0.00       8.24       1.21       3.06       4.27        0.00     0.00   0.337
  S435                      12.67       0.00       0.00       3.05       8.30       1.41       9.71        0.18     0.06   0.767
  S436                      12.67       0.00       0.00       8.42       1.16       2.08       3.24        0.05     0.01   0.256
  S437                      12.67       0.00       0.00       8.41       1.16       2.09       3.25        0.06     0.01   0.257
  S438                      12.67       0.00       0.00       6.39       4.06       2.47       6.52        0.01     0.00   0.515
  S439                      12.67       0.00       0.00       5.04       5.79       1.85       7.64        0.06     0.02   0.603
  S440                      12.67       0.00       0.00       8.81       0.60       2.55       3.16        0.01     0.00   0.249
  S441                      12.67       0.00       0.00       6.50       3.82       1.89       5.71        0.05     0.01   0.451
  S442                      12.67       0.00       0.00       8.21       1.72       0.17       1.89        0.03     0.00   0.149
  S443                      12.67       0.00       0.00       8.39       1.16       2.22       3.38        0.04     0.01   0.267
  S444                      12.67       0.00       0.00       8.35       1.17       2.46       3.63        0.02     0.01   0.287
  S445                      12.67       0.00       0.00       8.74       0.62       2.94       3.56        0.03     0.01   0.281
  S446                      12.67       0.00       0.00       8.75       0.62       2.90       3.52        0.03     0.01   0.278
  S447                      12.67       0.00       0.00       8.88       0.60       2.16       2.76        0.03     0.01   0.218
  S448                      12.67       0.00       0.00       8.38       1.17       2.30       3.46        0.04     0.01   0.273
  S449                      12.67       0.00       0.00       8.53       1.15       1.40       2.56        0.03     0.01   0.202
  S450                      12.67       0.00       0.00       5.09       5.70       1.58       7.28        0.07     0.02   0.575
  S451                      12.67       0.00       0.00       9.16       0.28       2.09       2.37        0.01     0.00   0.187
  S452                      12.67       0.00       0.00       9.28       0.27       1.32       1.59        0.03     0.01   0.126
  S453                      12.67       0.00       0.00       8.77       0.61       2.79       3.40        0.05     0.02   0.269
  S454                      12.67       0.00       0.00       5.05       5.75       1.78       7.53        0.10     0.03   0.594
  S455                      12.67       0.00       0.00       5.02       5.86       1.95       7.82        0.04     0.01   0.617
  S456                      12.67       0.00       0.00       8.29       1.18       2.80       3.99        0.00     0.00   0.315
  S457                      12.67       0.00       0.00       8.49       1.16       1.62       2.78        0.05     0.01   0.219
  S458                      12.67       0.00       0.00       8.21       1.72       0.18       1.90        0.02     0.00   0.150
  S459                      12.67       0.00       0.00       9.27       0.27       1.42       1.69        0.03     0.00   0.133
  S460                      12.67       0.00       0.00       7.25       2.87       1.79       4.66        0.06     0.02   0.368
  S461                      12.67       0.00       0.00       8.40       1.16       2.15       3.31        0.05     0.01   0.261
  S462                      12.67       0.00       0.00       8.31       1.18       2.67       3.85        0.00     0.00   0.304
  S463                      12.67       0.00       0.00       8.50       1.16       1.60       2.75        0.05     0.01   0.217
  S464                      12.67       0.00       0.00       3.03       8.43       1.45       9.89        0.07     0.03   0.781
  S465                      12.67       0.00       0.00       4.95       5.95       2.03       7.98        0.01     0.00   0.630
  S466                      12.67       0.00       0.00       8.43       1.16       1.98       3.14        0.06     0.01   0.248
  S467                      12.67       0.00       0.00       8.68       0.64       3.29       3.93        0.01     0.00   0.310
  S468                      12.67       0.00       0.00       8.40       1.16       2.14       3.31        0.01     0.00   0.261
  S469                      12.67       0.00       0.00       8.49       1.16       1.61       2.77        0.05     0.01   0.219
  S470                      12.67       0.00       0.00       1.44      10.57       0.70      11.28        0.15     0.04   0.890
  S471                      12.67       0.00       0.00       9.28       0.27       1.32       1.59        0.03     0.01   0.126
  S472                      12.67       0.00       0.00       8.75       0.62       2.89       3.51        0.03     0.01   0.277
  S473                      12.67       0.00       0.00       9.26       0.27       1.50       1.77        0.02     0.00   0.140
  S474                      12.67       0.00       0.00       8.92       0.59       1.95       2.54        0.04     0.01   0.201
  S475                      12.67       0.00       0.00       4.94       5.97       2.04       8.01        0.02     0.01   0.632
  S476                      12.67       0.00       0.00       8.47       1.16       1.74       2.89        0.03     0.01   0.228
  S477                      12.67       0.00       0.00       7.33       2.82       1.31       4.12        0.05     0.01   0.326
  S478                      12.67       0.00       0.00       8.54       1.15       1.33       2.48        0.04     0.01   0.196
  S479                      12.67       0.00       0.00       8.20       1.72       0.28       2.00        0.02     0.00   0.158
  S480                      12.67       0.00       0.00       8.19       1.73       0.36       2.08        0.01     0.00   0.164
  S481                      12.67       0.00       0.00       8.89       0.60       2.08       2.68        0.03     0.01   0.211
  S482                      12.67       0.00       0.00       7.21       2.92       2.00       4.92        0.03     0.01   0.388
  S483                      12.67       0.00       0.00       5.07       5.72       1.66       7.38        0.10     0.02   0.583
  S484                      12.67       0.00       0.00       6.48       3.85       2.01       5.86        0.09     0.03   0.462
  S485                      12.67       0.00       0.00       1.43      10.83       0.75      11.58        0.03     0.01   0.914
  S486                      12.67       0.00       0.00       8.91       0.59       1.99       2.58        0.04     0.01   0.204
  S487                      12.67       0.00       0.00       8.20       1.72       0.23       1.95        0.01     0.00   0.154
  S488                      12.67       0.00       0.00       8.77       0.61       2.79       3.40        0.05     0.02   0.268
  S489                      12.67       0.00       0.00       7.30       2.83       1.45       4.27        0.08     0.02   0.337
  S490                      12.67       0.00       0.00       8.47       1.16       1.77       2.93        0.03     0.01   0.231
  S491                      12.67       0.00       0.00       8.87       0.60       2.20       2.80        0.02     0.01   0.221
  S492                      12.67       0.00       0.00       8.45       1.16       1.90       3.06        0.02     0.01   0.241
  S493                      12.67       0.00       0.00       8.74       0.62       2.95       3.57        0.03     0.01   0.282
  S494                      12.67       0.00       0.00       7.25       2.87       1.77       4.65        0.06     0.02   0.367
  S495                      12.67       0.00       0.00       9.27       0.27       1.39       1.66        0.03     0.01   0.131
  S496                      12.67       0.00       0.00       3.05       8.30       1.41       9.71        0.18     0.06   0.767
  S497                      12.67       0.00       0.00       7.27       2.85       1.65       4.50        0.05     0.01   0.355
  S498                      12.67       0.00       0.00       8.37       1.17       2.34       3.51        0.01     0.00   0.277
  S499                      12.67       0.00       0.00       9.29       0.27       1.31       1.58        0.03     0.01   0.125
  S500                      12.67       0.00       0.00       8.21       1.72       0.18       1.90        0.02     0.00   0.150
  S501                      12.67       0.00       0.00       8.36       1.17       2.41       3.58        0.03     0.01   0.283
  S502                      12.67       0.00       0.00       5.01       5.87       1.96       7.83        0.02     0.01   0.618
  S503                      12.67       0.00       0.00       8.41       1.16       2.14       3.30        0.05     0.01   0.260
  S504                      12.67       0.00       0.00       3.05       8.31       1.42       9.73        0.16     0.05   0.768
  S505                      12.67       0.00       0.00       9.24       0.27       1.62       1.89        0.02     0.00   0.149
  S506                      12.67       0.00       0.00       2.99       8.89       1.60      10.49        0.01     0.01   0.828
  S507                      12.67       0.00       0.00       8.50       1.16       1.59       2.75        0.05     0.01   0.217
  S508                      12.67       0.00       0.00       8.38       1.17       2.31       3.48        0.03     0.01   0.274
  S509                      12.67       0.00       0.00       8.78       0.61       2.76       3.37        0.05     0.02   0.266
  S510                      12.67       0.00       0.00       3.04       8.32       1.42       9.74        0.15     0.05   0.769
  S511                      12.67       0.00       0.00       6.56       3.77       1.51       5.28        0.08     0.02   0.417
  S512                      12.67       0.00       0.00       5.06       5.74       1.76       7.50        0.06     0.01   0.592
  S513                      12.67       0.00       0.00       8.92       0.59       1.94       2.54        0.04     0.01   0.200
  S514                      12.67       0.00       0.00       8.41       1.16       2.13       3.29        0.05     0.01   0.260
  S515                      12.67       0.00       0.00       6.48       3.85       2.00       5.85        0.09     0.03   0.462
  S516                      12.67       0.00       0.00       8.20       1.72       0.24       1.96        0.03     0.01   0.155
  S517                      12.67       0.00       0.00       8.71       0.63       3.11       3.74        0.02     0.01   0.295
  S518                      12.67       0.00       0.00       8.43       1.16       2.02       3.18        0.05     0.01   0.251
  S519                      12.67       0.00       0.00       3.03       8.41       1.45       9.85        0.08     0.03   0.778
  S520                      12.67       0.00       0.00       8.70       0.63       3.14       3.77        0.01     0.01   0.297
  S521                      12.67       0.00       0.00       8.21       1.72       0.18       1.90        0.02     0.00   0.150
  S522                      12.67       0.00       0.00       8.46       1.16       1.80       2.96        0.03     0.01   0.233
  S523                      12.67       0.00       0.00       8.79       0.61       2.68       3.29        0.06     0.02   0.260
  S524                      12.67       0.00       0.00       5.03       5.80       1.87       7.68        0.08     0.02   0.606
  S525                      12.67       0.00       0.00       8.42       1.16       2.07       3.23        0.06     0.01   0.255
  S526                      12.67       0.00       0.00       8.20       1.72       0.26       1.99        0.01     0.00   0.157
  S527                      12.67       0.00       0.00       8.25       1.20       3.01       4.21        0.00     0.00   0.332
  S528                      12.67       0.00       0.00       8.21       1.72       0.18       1.89        0.01     0.00   0.149
  S529                      12.67       0.00       0.00       8.33       1.17       2.58       3.75        0.00     0.00   0.296
  S530                      12.67       0.00       0.00       8.40       1.16       2.17       3.34        0.01     0.00   0.263
  S531                      12.67       0.00       0.00       8.36       1.17       2.40       3.57        0.03     0.01   0.281
  S532                      12.67       0.00       0.00       8.86       0.60       2.26       2.86        0.02     0.01   0.226
  S533                      12.67       0.00       0.00       8.46       1.16       1.84       3.00        0.01     0.00   0.237
  S534                      12.67       0.00       0.00       8.21       1.72       0.20       1.92        0.02     0.00   0.152
  S535                      12.67       0.00       0.00       5.05       5.76       1.81       7.57        0.04     0.01   0.598
  S536                      12.67       0.00       0.00       8.20       1.72       0.25       1.97        0.03     0.01   0.156
  S537                      12.67       0.00       0.00       1.44      10.56       0.70      11.26        0.17     0.05   0.889
  S538                      12.67       0.00       0.00       7.27       2.86       1.68       4.54        0.04     0.01   0.358
  S539                      12.67       0.00       0.00       7.15       3.00       2.32       5.31        0.02     0.01   0.420
  S540                      12.67       0.00       0.00       7.24       2.88       1.84       4.72        0.08     0.03   0.372
  S541                      12.67       0.00       0.00       8.40       1.16       2.17       3.33        0.04     0.01   0.263
  S542                      12.67       0.00       0.00       8.20       1.72       0.27       1.99        0.01     0.00   0.157
  S543                      12.67       0.00       0.00       8.20       1.72       0.24       1.96        0.01     0.00   0.155
  S544                      12.67       0.00       0.00       8.21       1.72       0.18       1.90        0.02     0.00   0.150
  S545                      12.67       0.00       0.00       8.35       1.17       2.48       3.65        0.01     0.00   0.288
  S546                      12.67       0.00       0.00       8.41       1.16       2.11       3.27        0.06     0.01   0.259
  S547                      12.67       0.00       0.00       7.06       3.07       2.77       5.84        0.00     0.00   0.461
  S548                      12.67       0.00       0.00       5.02       5.84       1.92       7.76        0.05     0.02   0.613
  S549                      12.67       0.00       0.00       5.09       5.70       1.57       7.27        0.08     0.02   0.574
  S550                      12.67       0.00       0.00       3.04       8.37       1.43       9.80        0.11     0.04   0.774
  S551                      12.67       0.00       0.00       8.32       1.18       2.63       3.80        0.01     0.00   0.300
  S552                      12.67       0.00       0.00       2.99       8.89       1.60      10.49        0.01     0.01   0.828
  S553                      12.67       0.00       0.00       8.21       1.72       0.20       1.91        0.01     0.00   0.151
  S554                      12.67       0.00       0.00       3.04       8.34       1.43       9.77        0.13     0.05   0.771
  S555                      12.67       0.00       0.00       8.34       1.17       2.49       3.66        0.02     0.00   0.289
  S556                      12.67       0.00       0.00       3.02       8.53       1.48      10.01        0.04     0.02   0.790
  S557                      12.67       0.00       0.00       8.22       1.71       0.13       1.84        0.03     0.00   0.145
  S558                      12.67       0.00       0.00       8.44       1.16       1.96       3.12        0.02     0.00   0.246
  S559                      12.67       0.00       0.00       7.09       3.07       2.66       5.73        0.00     0.00   0.453
  S560                      12.67       0.00       0.00       8.22       1.72       0.16       1.88        0.03     0.00   0.148
  S561                      12.67       0.00       0.00       8.93       0.59       1.86       2.45        0.05     0.01   0.194
  S562                      12.67       0.00       0.00       8.75       0.62       2.92       3.54        0.03     0.01   0.279
  S563                      12.67       0.00       0.00       7.27       2.86       1.67       4.53        0.08     0.02   0.358
  S564                      12.67       0.00       0.00       8.35       1.17       2.43       3.60        0.02     0.01   0.284
  S565                      12.67       0.00       0.00       8.71       0.63       3.10       3.73        0.02     0.01   0.294
  S566                      12.67       0.00       0.00       8.25       1.20       2.97       4.17        0.00     0.00   0.329
  S567                      12.67       0.00       0.00       9.25       0.27       1.51       1.79        0.02     0.00   0.141
  S568                      12.67       0.00       0.00       8.74       0.62       2.94       3.56        0.03     0.01   0.281
  S569                      12.67       0.00       0.00       8.22       1.71       0.13       1.84        0.03     0.00   0.145
  S570                      12.67       0.00       0.00       9.25       0.27       1.50       1.78        0.02     0.00   0.140
  S571                      12.67       0.00       0.00       8.74       0.62       2.94       3.56        0.03     0.01   0.281
  S572                      12.67       0.00       0.00       7.20       2.92       2.03       4.96        0.01     0.01   0.391
  S573                      12.67       0.00       0.00       5.06       5.73       1.72       7.45        0.07     0.02   0.588
  S574                      12.67       0.00       0.00       5.06       5.73       1.71       7.44        0.08     0.02   0.588
  S575                      12.67       0.00       0.00       3.05       8.32       1.42       9.74        0.15     0.05   0.769
  S576                      12.67       0.00       0.00       5.05       5.76       1.79       7.55        0.05     0.01   0.596
  S577                      12.67       0.00       0.00       6.41       3.98       2.35       6.33        0.02     0.01   0.500
  S578                      12.67       0.00       0.00       1.42      10.93       0.77      11.70        0.02     0.01   0.924
  S579                      12.67       0.00       0.00       8.47       1.16       1.75       2.91        0.03     0.01   0.230
  S580                      12.67       0.00       0.00       5.07       5.72       1.69       7.41        0.09     0.02   0.585
  S581                      12.67       0.00       0.00       8.40       1.16       2.19       3.36        0.05     0.01   0.265
  S582                      12.67       0.00       0.00       8.66       0.65       3.36       4.00        0.01     0.00   0.316
  S583                      12.67       0.00       0.00       1.42      11.00       0.78      11.77        0.02     0.01   0.929
  S584                      12.67       0.00       0.00       8.89       0.60       2.11       2.71        0.03     0.01   0.214
  S585                      12.67       0.00       0.00       1.43      10.61       0.71      11.32        0.12     0.04   0.893
  S586                      12.67       0.00       0.00       8.23       1.21       3.08       4.29        0.00     0.00   0.339
  S587                      12.67       0.00       0.00       8.48       1.16       1.66       2.82        0.04     0.01   0.222
  S588                      12.67       0.00       0.00       8.39       1.16       2.21       3.37        0.04     0.01   0.266
  S589                      12.67       0.00       0.00       9.25       0.27       1.54       1.81        0.02     0.00   0.143
  S590                      12.67       0.00       0.00       4.94       5.96       2.04       8.00        0.02     0.01   0.632
  S591                      12.67       0.00       0.00       8.47       1.16       1.73       2.89        0.03     0.01   0.228
  S592                      12.67       0.00       0.00       8.22       1.71       0.11       1.82        0.03     0.00   0.144
  S593                      12.67       0.00       0.00       7.28       2.85       1.62       4.47        0.02     0.01   0.353
  S594                      12.67       0.00       0.00       8.92       0.59       1.93       2.53        0.04     0.01   0.199
  S595                      12.67       0.00       0.00       9.18       0.28       1.97       2.25        0.01     0.00   0.177
  S596                      12.67       0.00       0.00       6.51       3.81       1.82       5.62        0.06     0.02   0.444
[...]
  S848                      12.67       0.00       0.00       8.40       1.16       2.15       3.31        0.05     0.01   0.261
  S849                      12.67       0.00       0.00       5.04       5.79       1.85       7.63        0.09     0.03   0.603
  S850                      12.67       0.00       0.00       8.75       0.62       2.89       3.50        0.03     0.01   0.277
  S851                      12.67       0.00       0.00       8.47       1.16       1.72       2.88        0.04     0.01   0.227
  S852                      12.67       0.00       0.00       8.22       1.71       0.14       1.86        0.02     0.00   0.147
  S853                      12.67       0.00       0.00       7.27       2.85       1.66       4.51        0.02     0.01   0.356
  S854                      12.67       0.00       0.00       8.50       1.16       1.58       2.74        0.05     0.01   0.216
  S855                      12.67       0.00       0.00       8.87       0.60       2.20       2.80        0.02     0.01   0.221
  S856                      12.67       0.00       0.00       6.48       3.85       2.00       5.84        0.10     0.03   0.461
  S857                      12.67       0.00       0.00       6.57       3.77       1.50       5.27        0.08     0.02   0.416
  S858                      12.67       0.00       0.00       5.03       5.80       1.87       7.66        0.03     0.01   0.605
  S859                      12.67       0.00       0.00       7.21       2.92       2.02       4.94        0.03     0.01   0.390
  S860                      12.67       0.00       0.00       3.05       8.30       1.41       9.71        0.18     0.06   0.767
  S861                      12.67       0.00       0.00       7.23       2.89       1.87       4.76        0.05     0.02   0.376
  S862                      12.67       0.00       0.00       8.79       0.61       2.68       3.29        0.01     0.00   0.259
  S863                      12.67       0.00       0.00       5.05       5.76       1.79       7.55        0.14     0.04   0.596
  S864                      12.67       0.00       0.00       8.46       1.16       1.81       2.97        0.03     0.01   0.234
  S865                      12.67       0.00       0.00       5.02       5.83       1.92       7.75        0.02     0.01   0.612
  S866                      12.67       0.00       0.00       8.34       1.17       2.50       3.67        0.02     0.01   0.290
  S867                      12.67       0.00       0.00       3.03       8.38       1.44       9.82        0.10     0.04   0.775
  S868                      12.67       0.00       0.00       5.07       5.72       1.68       7.40        0.09     0.02   0.584
  S869                      12.67       0.00       0.00       3.04       8.33       1.42       9.75        0.14     0.05   0.770
  S870                      12.67       0.00       0.00       8.93       0.59       1.89       2.48        0.05     0.01   0.196
  S871                      12.67       0.00       0.00       9.13       0.28       2.29       2.57        0.00     0.00   0.203
  S872                      12.67       0.00       0.00       8.23       1.21       3.08       4.29        0.00     0.00   0.339
  S873                      12.67       0.00       0.00       8.48       1.16       1.66       2.82        0.04     0.01   0.223
  S874                      12.67       0.00       0.00       8.46       1.16       1.80       2.96        0.03     0.01   0.234
  S875                      12.67       0.00       0.00       8.21       1.72       0.18       1.90        0.02     0.00   0.150
  S876                      12.67       0.00       0.00       5.03       5.82       1.90       7.72        0.06     0.02   0.610
  S877                      12.67       0.00       0.00       8.46       1.16       1.81       2.97        0.03     0.01   0.235
  S878                      12.67       0.00       0.00       7.22       2.90       1.92       4.82        0.06     0.02   0.381
  S879                      12.67       0.00       0.00       5.05       5.76       1.79       7.55        0.13     0.04   0.596
  S880                      12.67       0.00       0.00       6.50       3.82       1.88       5.69        0.02     0.01   0.450
  S881                      12.67       0.00       0.00       7.24       2.88       1.83       4.71        0.03     0.01   0.372
  S882                      12.67       0.00       0.00       7.27       2.85       1.66       4.51        0.04     0.01   0.356
  S883                      12.67       0.00       0.00       8.36       1.17       2.41       3.58        0.03     0.01   0.283
  S884                      12.67       0.00       0.00       7.27       2.85       1.65       4.50        0.09     0.03   0.355
  S885                      12.67       0.00       0.00       8.39       1.16       2.22       3.39        0.01     0.00   0.268
  S886                      12.67       0.00       0.00       1.43      10.77       0.74      11.51        0.05     0.02   0.908
  S887                      12.67       0.00       0.00       8.77       0.61       2.80       3.41        0.05     0.01   0.269
  S888                      12.67       0.00       0.00       8.32       1.18       2.63       3.80        0.01     0.00   0.300
  S889                      12.67       0.00       0.00       3.00       8.71       1.53      10.24        0.02     0.01   0.808
  S890                      12.67       0.00       0.00       5.05       5.76       1.79       7.55        0.14     0.04   0.596
  S891                      12.67       0.00       0.00       8.17       1.73       0.47       2.20        0.01     0.00   0.174
  S892                      12.67       0.00       0.00       8.79       0.61       2.69       3.30        0.06     0.02   0.260
  S893                      12.67       0.00       0.00       5.05       5.75       1.78       7.53        0.15     0.04   0.594
  S894                      12.67       0.00       0.00       7.24       2.88       1.80       4.68        0.09     0.03   0.369
  S895                      12.67       0.00       0.00       9.26       0.27       1.47       1.74        0.02     0.00   0.138
  S896                      12.67       0.00       0.00       8.39       1.16       2.25       3.41        0.01     0.00   0.269
  S897                      12.67       0.00       0.00       5.11       5.69       1.48       7.17        0.12     0.02   0.566
  S898                      12.67       0.00       0.00       8.22       1.71       0.13       1.84        0.03     0.00   0.145
  S899                      12.67       0.00       0.00       8.78       0.61       2.75       3.36        0.05     0.02   0.265
  S900                      12.67       0.00       0.00       9.26       0.27       1.45       1.72        0.02     0.00   0.136
  S901                      12.67       0.00       0.00       7.27       2.85       1.65       4.50        0.05     0.01   0.355
  S902                      12.67       0.00       0.00       8.41       1.16       2.10       3.26        0.01     0.00   0.258
  S903                      12.67       0.00       0.00       7.23       2.89       1.89       4.79        0.04     0.01   0.378
  S904                      12.67       0.00       0.00       1.43      10.62       0.71      11.34        0.11     0.03   0.895
  S905                      12.67       0.00       0.00       7.23       2.89       1.88       4.77        0.07     0.02   0.376
  S906                      12.67       0.00       0.00       8.34       1.17       2.52       3.69        0.02     0.01   0.291
  S907                      12.67       0.00       0.00       3.02       8.46       1.46       9.92        0.06     0.03   0.783
  S908                      12.67       0.00       0.00       5.01       5.88       1.97       7.84        0.02     0.01   0.619
  S909                      12.67       0.00       0.00       8.38       1.17       2.28       3.45        0.04     0.01   0.272
  S910                      12.67       0.00       0.00       6.47       3.86       2.04       5.90        0.08     0.03   0.466
  S911                      12.67       0.00       0.00       8.21       1.72       0.19       1.91        0.02     0.00   0.151
  S912                      12.67       0.00       0.00       9.23       0.27       1.64       1.92        0.02     0.00   0.151
  S913                      12.67       0.00       0.00       8.21       1.72       0.20       1.92        0.01     0.00   0.151
  S914                      12.67       0.00       0.00       7.30       2.83       1.45       4.28        0.08     0.02   0.338
  S915                      12.67       0.00       0.00       8.44       0.65       3.61       4.26        0.00     0.00   0.336
  S916                      12.67       0.00       0.00       8.71       0.63       3.11       3.74        0.02     0.01   0.295
  S917                      12.67       0.00       0.00       8.39       1.16       2.21       3.37        0.04     0.01   0.266
  S918                      12.67       0.00       0.00       8.51       0.65       3.54       4.19        0.00     0.00   0.331
  S919                      12.67       0.00       0.00       8.22       1.71       0.13       1.85        0.02     0.00   0.146
  S920                      12.67       0.00       0.00       3.04       8.34       1.42       9.76        0.14     0.05   0.770
  S921                      12.67       0.00       0.00       9.24       0.27       1.58       1.85        0.02     0.00   0.146
  S922                      12.67       0.00       0.00       5.06       5.74       1.76       7.50        0.11     0.03   0.592
  S923                      12.67       0.00       0.00       8.44       1.16       1.93       3.09        0.02     0.00   0.244
  S924                      12.67       0.00       0.00       7.24       2.88       1.82       4.70        0.05     0.02   0.371
  S925                      12.67       0.00       0.00       8.47       1.16       1.74       2.89        0.03     0.01   0.228
  S926                      12.67       0.00       0.00       8.20       1.72       0.23       1.95        0.01     0.00   0.154
  S927                      12.67       0.00       0.00       3.03       8.43       1.45       9.88        0.08     0.03   0.780
  S928                      12.67       0.00       0.00       5.08       5.71       1.64       7.35        0.11     0.03   0.581
  S929                      12.67       0.00       0.00       8.83       0.60       2.44       3.04        0.01     0.00   0.240
  S930                      12.67       0.00       0.00       8.21       1.72       0.17       1.89        0.03     0.00   0.149
  S931                      12.67       0.00       0.00       9.26       0.27       1.50       1.77        0.02     0.00   0.140
  S932                      12.67       0.00       0.00       9.21       0.27       1.80       2.07        0.01     0.00   0.163
  S933                      12.67       0.00       0.00       8.50       1.16       1.56       2.71        0.05     0.01   0.214
  S934                      12.67       0.00       0.00       6.52       3.80       1.76       5.56        0.08     0.02   0.439
  S935                      12.67       0.00       0.00       6.50       3.82       1.89       5.71        0.05     0.01   0.451
  S936                      12.67       0.00       0.00       5.09       5.70       1.58       7.28        0.07     0.02   0.575
  S937                      12.67       0.00       0.00       4.93       5.99       2.05       8.05        0.01     0.00   0.635
  S938                      12.67       0.00       0.00       6.55       3.78       1.58       5.35        0.07     0.01   0.423
  S939                      12.67       0.00       0.00       8.48       1.16       1.71       2.86        0.04     0.01   0.226
  S940                      12.67       0.00       0.00       8.21       1.72       0.22       1.94        0.01     0.00   0.153
  S941                      12.67       0.00       0.00       7.24       2.88       1.81       4.69        0.01     0.00   0.370
  S942                      12.67       0.00       0.00       8.35       1.17       2.43       3.60        0.02     0.01   0.284
  S943                      12.67       0.00       0.00       3.05       8.30       1.41       9.71        0.18     0.06   0.767
  S944                      12.67       0.00       0.00       5.09       5.70       1.60       7.30        0.14     0.03   0.576
  S945                      12.67       0.00       0.00       7.32       2.82       1.32       4.13        0.05     0.01   0.326
  S946                      12.67       0.00       0.00       5.08       5.71       1.63       7.33        0.12     0.03   0.579
  S947                      12.67       0.00       0.00       9.27       0.27       1.40       1.67        0.03     0.01   0.132
  S948                      12.67       0.00       0.00       5.08       5.71       1.64       7.35        0.05     0.01   0.580
  S949                      12.67       0.00       0.00       8.47       1.16       1.73       2.88        0.04     0.01   0.228
  S950                      12.67       0.00       0.00       8.73       0.62       2.98       3.60        0.03     0.01   0.284
  S951                      12.67       0.00       0.00       8.86       0.60       2.27       2.86        0.02     0.01   0.226
  S952                      12.67       0.00       0.00       8.93       0.59       1.87       2.46        0.05     0.01   0.194
  S953                      12.67       0.00       0.00       9.21       0.27       1.80       2.08        0.01     0.00   0.164
  S954                      12.67       0.00       0.00       7.23       2.89       1.86       4.75        0.07     0.02   0.375
  S955                      12.67       0.00       0.00       5.07       5.71       1.65       7.37        0.10     0.02   0.582
  S956                      12.67       0.00       0.00       8.87       0.60       2.21       2.81        0.02     0.01   0.222
  S957                      12.67       0.00       0.00       7.15       3.00       2.32       5.32        0.01     0.00   0.420
  S958                      12.67       0.00       0.00       3.05       8.32       1.42       9.73        0.16     0.05   0.768
  S959                      12.67       0.00       0.00       1.43      10.65       0.72      11.37        0.09     0.03   0.898
  S960                      12.67       0.00       0.00       8.81       0.60       2.54       3.14        0.01     0.00   0.248
  S961                      12.67       0.00       0.00       6.48       3.84       1.97       5.81        0.10     0.03   0.459
  S962                      12.67       0.00       0.00       8.75       0.62       2.89       3.50        0.03     0.01   0.277
  S963                      12.67       0.00       0.00       8.32       1.17       2.59       3.77        0.02     0.00   0.298
  S964                      12.67       0.00       0.00       8.35       1.17       2.48       3.65        0.02     0.00   0.288
  S965                      12.67       0.00       0.00       8.86       0.60       2.29       2.89        0.02     0.01   0.228
  S966                      12.67       0.00       0.00       8.21       1.72       0.19       1.91        0.02     0.00   0.151
  S967                      12.67       0.00       0.00       7.29       2.84       1.51       4.35        0.07     0.02   0.343
  S968                      12.67       0.00       0.00       8.22       1.71       0.13       1.84        0.03     0.00   0.145
  S969                      12.67       0.00       0.00       8.44       1.16       1.96       3.12        0.06     0.01   0.246
  S970                      12.67       0.00       0.00       1.42      11.20       0.81      12.01        0.01     0.00   0.948
  S971                      12.67       0.00       0.00       8.76       0.62       2.87       3.48        0.04     0.01   0.275
  S972                      12.67       0.00       0.00       1.43      10.60       0.71      11.30        0.13     0.04   0.892
  S973                      12.67       0.00       0.00       8.49       1.16       1.65       2.81        0.04     0.01   0.222
  S974                      12.67       0.00       0.00       8.53       0.65       3.51       4.16        0.00     0.00   0.328
  S975                      12.67       0.00       0.00       4.99       5.89       1.98       7.87        0.03     0.01   0.621
  S976                      12.67       0.00       0.00       8.41       1.16       2.12       3.28        0.01     0.00   0.259
  S977                      12.67       0.00       0.00       9.25       0.27       1.51       1.78        0.02     0.00   0.141
  S978                      12.67       0.00       0.00       3.05       8.31       1.42       9.73        0.16     0.05   0.768
  S979                      12.67       0.00       0.00       7.29       2.84       1.53       4.36        0.06     0.02   0.345
  S980                      12.67       0.00       0.00       8.92       0.59       1.94       2.54        0.04     0.01   0.200
  S981                      12.67       0.00       0.00       8.74       0.62       2.94       3.56        0.03     0.01   0.281
  S982                      12.67       0.00       0.00       5.06       5.74       1.73       7.47        0.13     0.03   0.590
  S983                      12.67       0.00       0.00       8.48       1.16       1.69       2.85        0.04     0.01   0.225
  S984                      12.67       0.00       0.00       7.23       2.89       1.86       4.75        0.05     0.02   0.375
  S985                      12.67       0.00       0.00       9.07       0.29       2.63       2.91        0.00     0.00   0.230
  S986                      12.67       0.00       0.00       8.32       1.18       2.62       3.79        0.01     0.00   0.299
  S987                      12.67       0.00       0.00       7.20       2.93       2.08       5.01        0.04     0.01   0.396
  S988                      12.67       0.00       0.00       8.22       1.71       0.12       1.83        0.03     0.00   0.145
  S989                      12.67       0.00       0.00       8.89       0.60       2.09       2.69        0.03     0.01   0.212
  S990                      12.67       0.00       0.00       4.98       5.90       1.99       7.90        0.03     0.01   0.623
  S991                      12.67       0.00       0.00       8.18       1.73       0.39       2.12        0.00     0.00   0.167
  S992                      12.67       0.00       0.00       1.44      10.53       0.70      11.22        0.22     0.06   0.886
  S993                      12.67       0.00       0.00       8.30       1.18       2.75       3.93        0.01     0.00   0.310
  S994                      12.67       0.00       0.00       6.49       3.83       1.92       5.75        0.02     0.01   0.454
  S995                      12.67       0.00       0.00       8.40       1.16       2.17       3.33        0.04     0.01   0.263
  S996                      12.67       0.00       0.00       8.79       0.61       2.68       3.29        0.06     0.02   0.260
  S997                      12.67       0.00       0.00       8.47       1.16       1.74       2.90        0.03     0.01   0.229
  S998                      12.67       0.00       0.00       2.98       8.94       1.62      10.56        0.01     0.00   0.834
  S999                      12.67       0.00       0.00       6.46       3.88       2.11       5.99        0.04     0.01   0.473
  S1000                     12.67       0.00       0.00       8.44       1.16       1.95       3.11        0.02     0.00   0.246
  S1001                     12.67       0.00       0.00       1.42      10.86       0.75      11.61        0.03     0.01   0.917
  

  Analysis begun on:  Sat May 20 09:32:55 2023
  Analysis ended on:  Sat May 20 09:32:56 2023
  Total elapsed time: 00:00:01