
  OWA STORM WATER MANAGEMENT MODEL - VERSION v5.2.3 (OWA 2023-03-28)
  ------------------------------------------------------------

  WARNING 01: wet weather time step reduced to recording interval for Rain Gage Raingage2
  
  ****************
  Analysis Options
  ****************
  Flow Units ............... CMS
  Process Models:
    Rainfall/Runoff ........ YES
    RDII ................... NO
    Snowmelt ............... NO
    Groundwater ............ NO
    Flow Routing ........... NO
    Water Quality .......... NO
  Infiltration Method ...... MODIFIED_GREEN_AMPT
  Starting Date ............ 06/17/2022 00:00:00
  Ending Date .............. 06/17/2022 12:00:00
  Antecedent Dry Days ...... 0.0
  Report Time Step ......... 00:15:00
  Wet Time Step ............ 00:01:00
  Dry Time Step ............ 01:00:00
  
  
  **************************        Volume         Depth
  Runoff Quantity Continuity     hectare-m            mm
  **************************     ---------       -------
  Total Precipitation ......        20.143        20.000
  Evaporation Loss .........         0.000         0.000
  Infiltration Loss ........         7.303         7.251
  Surface Runoff ...........        12.167        12.080
  Final Storage ............         0.688         0.683
  Continuity Error (%) .....        -0.075
  
  
  **************************        Volume        Volume
  Flow Routing Continuity        hectare-m      10^6 ltr
  **************************     ---------     ---------
  Dry Weather Inflow .......         0.000         0.000
  Wet Weather Inflow .......        12.167       121.667
  Groundwater Inflow .......         0.000         0.000
  RDII Inflow ..............         0.000         0.000
  External Inflow ..........         0.000         0.000
  External Outflow .........        12.167       121.667
  Flooding Loss ............         0.000         0.000
  Evaporation Loss .........         0.000         0.000
  Exfiltration Loss ........         0.000         0.000
  Initial Stored Volume ....         0.000         0.000
  Final Stored Volume ......         0.000         0.000
  Continuity Error (%) .....         0.000
  
  
  ***************************
  Subcatchment Runoff Summary
  ***************************
  
  ------------------------------------------------------------------------------------------------------------------------------
                            Total      Total      Total      Total     Imperv       Perv      Total       Total     Peak  Runoff
                           Precip      Runon       Evap      Infil     Runoff     Runoff     Runoff      Runoff   Runoff   Coeff
  Subcatchment                 mm         mm         mm         mm         mm         mm         mm    10^6 ltr      CMS
  ------------------------------------------------------------------------------------------------------------------------------
  S1                        20.00       0.00       0.00       6.23       3.93       9.78      13.71        0.07     0.06   0.686
  S2                        20.00       0.00       0.00       4.64       8.96       6.37      15.33        0.24     0.18   0.766
  S3                        20.00       0.00       0.00       7.77       0.96      11.22      12.18        0.10     0.08   0.609
  S4                        20.00       0.00       0.00       8.62       2.82       6.80       9.62        0.06     0.04   0.481
  S5                        20.00       0.00       0.00       7.34       4.43       8.16      12.59        0.18     0.11   0.630
  S6                        20.00       0.00       0.00       8.81       1.89       8.95      10.84        0.08     0.04   0.542
  S7                        20.00       0.00       0.00       9.27       0.96       9.52      10.48        0.12     0.06   0.524
  S8                        20.00       0.00       0.00       8.72       2.82       6.34       9.16        0.11     0.06   0.458
  S9                        20.00       0.00       0.00       4.47       8.96       6.53      15.49        0.14     0.11   0.775
  S10                       20.00       0.00       0.00       4.37       8.96       6.63      15.60        0.29     0.23   0.780
  S11                       20.00       0.00       0.00       6.80       5.94       7.19      13.12        0.15     0.09   0.656
  S12                       20.00       0.00       0.00       7.07       0.97      11.92      12.89        0.02     0.02   0.644
  S13                       20.00       0.00       0.00       8.60       1.89       9.40      11.29        0.18     0.10   0.565
  S14                       20.00       0.00       0.00      10.00       0.44       7.87       8.31        0.15     0.04   0.416
  S15                       20.00       0.00       0.00       4.64       8.96       6.37      15.32        0.24     0.18   0.766
  S16                       20.00       0.00       0.00       6.15       5.94       7.86      13.80        0.18     0.13   0.690
  S17                       20.00       0.00       0.00       8.54       2.82       7.15       9.97        0.03     0.02   0.499
  S18                       20.00       0.00       0.00       9.36       0.96       9.18      10.14        0.18     0.08   0.507
  S19                       20.00       0.00       0.00       7.62       4.43       7.58      12.01        0.14     0.07   0.601
  S20                       20.00       0.00       0.00       4.32       8.97       6.69      15.65        0.08     0.06   0.783
  S21                       20.00       0.00       0.00       8.89       1.89       8.65      10.54        0.11     0.05   0.527
  S22                       20.00       0.00       0.00       9.02       1.89       8.11      10.00        0.20     0.08   0.500
  S23                       20.00       0.00       0.00       7.63       4.43       7.56      11.98        0.15     0.08   0.599
  S24                       20.00       0.00       0.00       2.27      12.89       4.75      17.64        0.10     0.08   0.882
  S25                       20.00       0.00       0.00       5.79       4.45       9.73      14.17        0.01     0.01   0.709
  S26                       20.00       0.00       0.00       5.60       5.95       8.41      14.36        0.02     0.02   0.718
  S27                       20.00       0.00       0.00       6.33       5.94       7.67      13.61        0.26     0.17   0.681
  S28                       20.00       0.00       0.00       8.77       2.82       6.15       8.97        0.05     0.02   0.448
  S29                       20.00       0.00       0.00       9.28       0.96       9.50      10.46        0.13     0.06   0.523
  S30                       20.00       0.00       0.00       4.48       8.96       6.53      15.49        0.28     0.22   0.774
  S31                       20.00       0.00       0.00       3.82       8.99       7.19      16.18        0.01     0.01   0.809
  S32                       20.00       0.00       0.00       8.47       1.89       9.54      11.43        0.11     0.07   0.571
  S33                       20.00       0.00       0.00       4.39       8.96       6.61      15.57        0.11     0.08   0.779
  S34                       20.00       0.00       0.00       8.49       1.89       9.51      11.40        0.16     0.09   0.570
  S35                       20.00       0.00       0.00       2.32      12.87       4.69      17.56        0.33     0.26   0.878
  S36                       20.00       0.00       0.00       7.68       4.43       7.35      11.78        0.09     0.04   0.589
  S37                       20.00       0.00       0.00       9.00       2.82       5.05       7.87        0.09     0.04   0.393
  S38                       20.00       0.00       0.00       8.94       2.82       5.34       8.16        0.06     0.03   0.408
  S39                       20.00       0.00       0.00       9.98       0.44       7.96       8.40        0.14     0.04   0.420
  S40                       20.00       0.00       0.00       4.25       8.97       6.76      15.73        0.18     0.14   0.786
  S41                       20.00       0.00       0.00       9.04       1.89       8.03       9.92        0.10     0.04   0.496
  S42                       20.00       0.00       0.00       2.32      12.87       4.70      17.57        0.30     0.23   0.878
  S43                       20.00       0.00       0.00       4.99       8.95       6.01      14.96        0.29     0.20   0.748
  S44                       20.00       0.00       0.00       8.77       2.82       6.12       8.94        0.15     0.08   0.447
  S45                       20.00       0.00       0.00       6.08       5.94       7.93      13.87        0.16     0.11   0.693
  S46                       20.00       0.00       0.00       8.89       2.82       5.56       8.38        0.10     0.04   0.419
  S47                       20.00       0.00       0.00       7.50       4.43       8.00      12.43        0.23     0.13   0.621
  S48                       20.00       0.00       0.00       8.18       0.96      10.81      11.77        0.20     0.14   0.589
  S49                       20.00       0.00       0.00       4.47       8.96       6.53      15.50        0.28     0.21   0.775
  S50                       20.00       0.00       0.00       7.71       4.43       7.22      11.65        0.23     0.11   0.582
  S51                       20.00       0.00       0.00       2.30      12.88       4.71      17.59        0.22     0.17   0.879
  S52                       20.00       0.00       0.00       7.55       1.89      10.45      12.35        0.04     0.03   0.617
  S53                       20.00       0.00       0.00       9.60       0.44       9.57      10.01        0.03     0.01   0.500
  S54                       20.00       0.00       0.00       5.64       5.95       8.37      14.32        0.08     0.06   0.716
  S55                       20.00       0.00       0.00       8.10       0.96      10.89      11.85        0.17     0.13   0.593
  S56                       20.00       0.00       0.00       8.46       2.82       7.48      10.31        0.00     0.00   0.515
  S57                       20.00       0.00       0.00       8.68       1.89       9.32      11.21        0.20     0.11   0.561
  S58                       20.00       0.00       0.00       7.52       4.43       7.97      12.40        0.08     0.05   0.620
  S59                       20.00       0.00       0.00       8.18       1.89       9.83      11.72        0.01     0.01   0.586
  S60                       20.00       0.00       0.00       9.69       0.44       9.21       9.65        0.05     0.02   0.483
  S61                       20.00       0.00       0.00       8.89       2.82       5.58       8.40        0.09     0.04   0.420
  S62                       20.00       0.00       0.00       8.70       2.82       6.43       9.25        0.03     0.02   0.463
  S63                       20.00       0.00       0.00       5.90       4.45       9.61      14.05        0.00     0.00   0.703
  S64                       20.00       0.00       0.00       8.66       1.89       9.34      11.23        0.20     0.11   0.561
  S65                       20.00       0.00       0.00       8.39       0.44      11.15      11.59        0.00     0.00   0.580
  S66                       20.00       0.00       0.00       8.21       1.89       9.79      11.68        0.03     0.02   0.584
  S67                       20.00       0.00       0.00       6.48       5.94       7.52      13.46        0.18     0.11   0.673
  S68                       20.00       0.00       0.00       7.10       1.89      10.91      12.80        0.01     0.01   0.640
  S69                       20.00       0.00       0.00       4.66       8.96       6.35      15.30        0.26     0.19   0.765
  S70                       20.00       0.00       0.00       2.31      12.87       4.70      17.58        0.27     0.21   0.879
  S71                       20.00       0.00       0.00       8.93       2.82       5.41       8.22        0.06     0.03   0.411
  S72                       20.00       0.00       0.00       3.99       8.98       7.02      16.00        0.03     0.03   0.800
  S73                       20.00       0.00       0.00       7.59       0.97      11.40      12.37        0.07     0.06   0.618
  S74                       20.00       0.00       0.00       1.06      16.51       2.29      18.80        0.07     0.05   0.940
  S75                       20.00       0.00       0.00       4.24       8.97       6.77      15.74        0.11     0.09   0.787
  S76                       20.00       0.00       0.00       1.08      16.49       2.26      18.75        0.36     0.27   0.938
  S77                       20.00       0.00       0.00       8.66       2.82       6.63       9.45        0.02     0.01   0.473
  S78                       20.00       0.00       0.00       8.91       2.82       5.49       8.30        0.05     0.02   0.415
  S79                       20.00       0.00       0.00       4.07       8.97       6.94      15.91        0.08     0.06   0.796
  S80                       20.00       0.00       0.00       8.84       2.82       5.80       8.62        0.07     0.04   0.431
  S81                       20.00       0.00       0.00       8.80       1.89       8.99      10.88        0.03     0.02   0.544
  S82                       20.00       0.00       0.00       7.51       4.43       7.99      12.42        0.08     0.05   0.621
  S83                       20.00       0.00       0.00       2.31      12.87       4.70      17.58        0.26     0.20   0.879
  S84                       20.00       0.00       0.00       4.34       8.96       6.67      15.63        0.09     0.07   0.782
  S85                       20.00       0.00       0.00       1.07      16.50       2.28      18.78        0.15     0.11   0.939
  S86                       20.00       0.00       0.00       8.39       0.96      10.60      11.56        0.03     0.02   0.578
  S87                       20.00       0.00       0.00       6.30       5.94       7.70      13.64        0.25     0.17   0.682
  S88                       20.00       0.00       0.00       8.23       0.96      10.76      11.73        0.21     0.15   0.586
  S89                       20.00       0.00       0.00       7.85       4.42       6.63      11.05        0.21     0.09   0.552
  S90                       20.00       0.00       0.00       8.92       1.89       8.51      10.40        0.13     0.06   0.520
  S91                       20.00       0.00       0.00       8.75       1.89       9.20      11.09        0.18     0.09   0.554
  S92                       20.00       0.00       0.00       9.24       0.96       9.66      10.62        0.11     0.05   0.531
  S93                       20.00       0.00       0.00       1.05      16.53       2.30      18.83        0.03     0.02   0.942
  S94                       20.00       0.00       0.00       9.31       0.96       9.39      10.35        0.14     0.07   0.517
  S95                       20.00       0.00       0.00       8.73       1.89       9.28      11.16        0.21     0.11   0.558
  S96                       20.00       0.00       0.00       8.32       1.89       9.68      11.57        0.12     0.08   0.579
  S97                       20.00       0.00       0.00       7.94       0.96      11.05      12.01        0.13     0.10   0.601
  S98                       20.00       0.00       0.00       4.50       8.96       6.51      15.47        0.30     0.23   0.773
  S99                       20.00       0.00       0.00       2.32      12.87       4.70      17.57        0.30     0.23   0.878
  S100                      20.00       0.00       0.00       4.46       8.96       6.55      15.51        0.27     0.20   0.775
  S101                      20.00       0.00       0.00       7.58       4.43       7.75      12.18        0.11     0.06   0.609
  S102                      20.00       0.00       0.00       7.81       4.42       6.78      11.21        0.17     0.08   0.560
  S103                      20.00       0.00       0.00       8.26       0.96      10.72      11.69        0.22     0.16   0.584
  S104                      20.00       0.00       0.00       8.77       1.89       9.10      10.98        0.20     0.10   0.549
  S105                      20.00       0.00       0.00       8.99       1.89       8.24      10.13        0.17     0.07   0.506
  S106                      20.00       0.00       0.00       9.73       0.44       9.02       9.46        0.06     0.02   0.473
  S107                      20.00       0.00       0.00       4.78       8.96       6.23      15.18        0.17     0.12   0.759
  S108                      20.00       0.00       0.00       8.89       2.82       5.60       8.41        0.09     0.04   0.421
  S109                      20.00       0.00       0.00       8.93       2.82       5.39       8.21        0.12     0.05   0.410
  S110                      20.00       0.00       0.00       8.77       1.89       9.12      11.01        0.19     0.10   0.550
  S111                      20.00       0.00       0.00       7.77       4.42       6.99      11.41        0.14     0.07   0.571
  S112                      20.00       0.00       0.00       6.16       5.94       7.84      13.78        0.19     0.13   0.689
  S113                      20.00       0.00       0.00       8.95       2.82       5.27       8.09        0.07     0.03   0.405
  S114                      20.00       0.00       0.00       9.21       0.96       9.76      10.72        0.09     0.05   0.536
  S115                      20.00       0.00       0.00       2.31      12.87       4.70      17.58        0.26     0.21   0.879
  S116                      20.00       0.00       0.00       9.61       0.44       9.54       9.98        0.03     0.01   0.499
  S117                      20.00       0.00       0.00       7.85       4.42       6.63      11.05        0.21     0.09   0.553
  S118                      20.00       0.00       0.00       7.91       0.96      11.08      12.04        0.12     0.10   0.602
  S119                      20.00       0.00       0.00       1.06      16.51       2.29      18.80        0.07     0.05   0.940
  S120                      20.00       0.00       0.00       8.79       2.82       6.04       8.86        0.05     0.03   0.443
  S121                      20.00       0.00       0.00       8.43       1.89       9.57      11.46        0.04     0.02   0.573
  S122                      20.00       0.00       0.00       7.42       4.43       8.08      12.51        0.07     0.04   0.626
  S123                      20.00       0.00       0.00       7.31       4.43       8.20      12.63        0.17     0.10   0.631
  S124                      20.00       0.00       0.00       6.72       1.90      11.29      13.19        0.01     0.00   0.659
  S125                      20.00       0.00       0.00       8.12       0.96      10.87      11.83        0.18     0.13   0.592
  S126                      20.00       0.00       0.00       4.20       8.97       6.81      15.77        0.15     0.12   0.789
  S127                      20.00       0.00       0.00       9.33       0.96       9.28      10.24        0.16     0.07   0.512
  S128                      20.00       0.00       0.00       7.79       4.42       6.87      11.29        0.16     0.07   0.564
  S129                      20.00       0.00       0.00       7.58       0.97      11.41      12.38        0.07     0.06   0.619
  S130                      20.00       0.00       0.00       9.65       0.44       9.35       9.79        0.04     0.02   0.490
  S131                      20.00       0.00       0.00       8.90       1.89       8.59      10.48        0.12     0.05   0.524
  S132                      20.00       0.00       0.00       9.77       0.44       8.89       9.33        0.07     0.02   0.467
  S133                      20.00       0.00       0.00       8.97       2.82       5.20       8.01        0.15     0.06   0.401
  S134                      20.00       0.00       0.00       8.89       2.82       5.59       8.41        0.09     0.04   0.420
  S135                      20.00       0.00       0.00       8.71       2.82       6.38       9.20        0.10     0.06   0.460
  S136                      20.00       0.00       0.00       8.40       2.82       7.71      10.54        0.01     0.01   0.527
  S137                      20.00       0.00       0.00       5.85       5.94       8.15      14.10        0.09     0.07   0.705
  S138                      20.00       0.00       0.00       9.28       0.96       9.49      10.45        0.13     0.06   0.523
  S139                      20.00       0.00       0.00       2.30      12.88       4.72      17.60        0.19     0.15   0.880
  S140                      20.00       0.00       0.00      10.02       0.44       7.80       8.24        0.16     0.04   0.412
  S141                      20.00       0.00       0.00       9.24       0.96       9.66      10.62        0.11     0.05   0.531
  S142                      20.00       0.00       0.00       6.33       5.94       7.67      13.61        0.27     0.17   0.681
  S143                      20.00       0.00       0.00       8.88       2.82       5.62       8.44        0.09     0.04   0.422
  S144                      20.00       0.00       0.00       8.95       2.82       5.27       8.09        0.14     0.06   0.405
  S145                      20.00       0.00       0.00       7.51       0.97      11.49      12.45        0.06     0.05   0.623
  S146                      20.00       0.00       0.00       8.72       2.82       6.34       9.16        0.04     0.02   0.458
  S147                      20.00       0.00       0.00       7.45       4.43       8.05      12.48        0.14     0.08   0.624
  S148                      20.00       0.00       0.00       8.75       2.82       6.22       9.04        0.13     0.07   0.452
  S149                      20.00       0.00       0.00       6.44       4.44       9.06      13.50        0.02     0.02   0.675
  S150                      20.00       0.00       0.00       7.17       4.43       8.33      12.76        0.02     0.01   0.638
  S151                      20.00       0.00       0.00       7.45       4.43       8.05      12.48        0.07     0.04   0.624
  S152                      20.00       0.00       0.00       8.00       1.89      10.01      11.90        0.06     0.04   0.595
  S153                      20.00       0.00       0.00       8.81       2.82       5.95       8.77        0.06     0.03   0.439
  S154                      20.00       0.00       0.00       5.79       5.95       8.21      14.16        0.12     0.09   0.708
  S155                      20.00       0.00       0.00       5.43       5.95       8.57      14.53        0.04     0.04   0.726
  S156                      20.00       0.00       0.00       6.52       5.94       7.49      13.42        0.19     0.12   0.671
  S157                      20.00       0.00       0.00       9.84       0.44       8.57       9.01        0.09     0.03   0.451
  S158                      20.00       0.00       0.00       8.94       1.89       8.45      10.34        0.14     0.06   0.517
  S159                      20.00       0.00       0.00       8.81       2.82       5.94       8.76        0.06     0.03   0.438
  S160                      20.00       0.00       0.00       7.93       0.96      11.06      12.02        0.13     0.10   0.601
  S161                      20.00       0.00       0.00       6.83       4.44       8.68      13.11        0.08     0.05   0.656
  S162                      20.00       0.00       0.00       8.95       2.82       5.26       8.08        0.07     0.03   0.404
  S163                      20.00       0.00       0.00       9.17       1.89       7.46       9.35        0.17     0.06   0.468
  S164                      20.00       0.00       0.00       8.98       2.82       5.16       7.98        0.15     0.07   0.399
  S165                      20.00       0.00       0.00       8.04       0.96      10.95      11.91        0.16     0.12   0.596
  S166                      20.00       0.00       0.00       8.94       2.82       5.34       8.16        0.06     0.03   0.408
  S167                      20.00       0.00       0.00       7.52       1.89      10.48      12.37        0.01     0.01   0.619
  S168                      20.00       0.00       0.00       8.11       1.89       9.89      11.78        0.09     0.06   0.589
  S169                      20.00       0.00       0.00       7.72       4.43       7.17      11.59        0.11     0.05   0.580
  S170                      20.00       0.00       0.00       6.96       1.89      11.05      12.94        0.00     0.00   0.647
  S171                      20.00       0.00       0.00       7.32       4.43       8.19      12.62        0.12     0.07   0.631
  S172                      20.00       0.00       0.00       8.48       2.82       7.39      10.22        0.01     0.01   0.511
  S173                      20.00       0.00       0.00       8.87       2.82       5.68       8.49        0.08     0.04   0.425
  S174                      20.00       0.00       0.00       1.06      16.51       2.28      18.79        0.11     0.08   0.939
  S175                      20.00       0.00       0.00       6.00       5.94       8.00      13.94        0.13     0.10   0.697
  S176                      20.00       0.00       0.00       4.24       8.97       6.77      15.74        0.03     0.02   0.787
  S177                      20.00       0.00       0.00       7.70       1.89      10.31      12.20        0.05     0.03   0.610
  S178                      20.00       0.00       0.00       6.93       4.43       8.57      13.01        0.03     0.02   0.650
  S179                      20.00       0.00       0.00       9.95       0.44       8.10       8.54        0.13     0.04   0.427
  S180                      20.00       0.00       0.00       9.28       0.96       9.50      10.46        0.13     0.06   0.523
  S181                      20.00       0.00       0.00       8.02       0.96      10.97      11.94        0.15     0.11   0.597
  S182                      20.00       0.00       0.00       8.16       0.96      10.83      11.79        0.19     0.14   0.590
  S183                      20.00       0.00       0.00       7.81       1.89      10.20      12.09        0.04     0.03   0.604
  S184                      20.00       0.00       0.00       2.29      12.88       4.72      17.60        0.17     0.14   0.880
  S185                      20.00       0.00       0.00       6.57       5.94       7.44      13.37        0.21     0.13   0.669
  S186                      20.00       0.00       0.00       8.97       2.82       5.17       7.99        0.15     0.06   0.399
  S187                      20.00       0.00       0.00       7.57       1.89      10.44      12.33        0.04     0.03   0.616
  S188                      20.00       0.00       0.00       8.30       1.89       9.71      11.60        0.01     0.01   0.580
  S189                      20.00       0.00       0.00       8.81       1.89       8.95      10.83        0.04     0.02   0.542
  S190                      20.00       0.00       0.00       7.95       0.96      11.04      12.00        0.13     0.10   0.600
  S191                      20.00       0.00       0.00       7.98       1.89      10.02      11.91        0.02     0.01   0.595
  S192                      20.00       0.00       0.00       8.89       2.82       5.58       8.40        0.09     0.04   0.420
  S193                      20.00       0.00       0.00       7.36       0.97      11.63      12.60        0.04     0.04   0.630
  S194                      20.00       0.00       0.00       9.94       0.44       8.14       8.58        0.12     0.04   0.429
  S195                      20.00       0.00       0.00       9.02       1.89       8.11      10.00        0.20     0.08   0.500
  S196                      20.00       0.00       0.00       7.76       1.89      10.24      12.13        0.05     0.04   0.607
  S197                      20.00       0.00       0.00       4.44       8.96       6.56      15.52        0.25     0.19   0.776
  S198                      20.00       0.00       0.00       9.03       2.82       4.89       7.71        0.10     0.04   0.386
  S199                      20.00       0.00       0.00       8.94       2.82       5.34       8.16        0.12     0.05   0.408
  S200                      20.00       0.00       0.00       8.92       1.89       8.51      10.40        0.13     0.06   0.520
  S201                      20.00       0.00       0.00       9.38       0.96       9.09      10.05        0.20     0.08   0.502
  S202                      20.00       0.00       0.00       7.68       4.43       7.35      11.78        0.19     0.10   0.589
  S203                      20.00       0.00       0.00       6.80       5.94       7.18      13.12        0.15     0.09   0.656
  S204                      20.00       0.00       0.00       2.29      12.88       4.72      17.60        0.19     0.15   0.880
  S205                      20.00       0.00       0.00       8.81       2.82       5.94       8.76        0.06     0.03   0.438
  S206                      20.00       0.00       0.00       8.14       0.96      10.85      11.81        0.18     0.14   0.591
  S207                      20.00       0.00       0.00       8.94       0.96      10.05      11.01        0.07     0.04   0.551
  S208                      20.00       0.00       0.00       9.33       0.96       9.29      10.25        0.16     0.07   0.513
  S209                      20.00       0.00       0.00       1.06      16.51       2.29      18.81        0.06     0.05   0.940
  S210                      20.00       0.00       0.00       8.41       0.96      10.57      11.54        0.03     0.02   0.577
  S211                      20.00       0.00       0.00       1.07      16.50       2.27      18.77        0.24     0.18   0.938
  S212                      20.00       0.00       0.00       8.61       2.82       6.82       9.64        0.06     0.03   0.482
  S213                      20.00       0.00       0.00       8.18       1.89       9.82      11.71        0.10     0.06   0.586
  S214                      20.00       0.00       0.00       8.44       2.82       7.56      10.39        0.02     0.01   0.519
  S215                      20.00       0.00       0.00       2.27      12.88       4.74      17.63        0.12     0.09   0.881
  S216                      20.00       0.00       0.00       2.31      12.88       4.71      17.58        0.24     0.19   0.879
  S217                      20.00       0.00       0.00       8.79       1.89       9.03      10.92        0.07     0.04   0.546
  S218                      20.00       0.00       0.00       7.14       4.43       8.36      12.80        0.02     0.01   0.640
  S219                      20.00       0.00       0.00       8.59       1.89       9.41      11.30        0.05     0.03   0.565
  S220                      20.00       0.00       0.00       6.72       5.94       7.28      13.22        0.13     0.08   0.661
  S221                      20.00       0.00       0.00       4.16       8.97       6.84      15.81        0.08     0.07   0.791
  S222                      20.00       0.00       0.00       5.81       5.95       8.20      14.14        0.13     0.10   0.707
  S223                      20.00       0.00       0.00       9.32       0.96       9.34      10.30        0.15     0.07   0.515
  S224                      20.00       0.00       0.00       4.70       8.96       6.31      15.26        0.29     0.21   0.763
  S225                      20.00       0.00       0.00       8.55       1.89       9.45      11.34        0.17     0.10   0.567
  S226                      20.00       0.00       0.00       8.98       2.82       5.16       7.98        0.15     0.07   0.399
  S227                      20.00       0.00       0.00       9.67       0.44       9.29       9.73        0.04     0.02   0.487
  S228                      20.00       0.00       0.00       6.77       4.44       8.74      13.17        0.01     0.01   0.659
  S229                      20.00       0.00       0.00       7.58       4.43       7.75      12.18        0.22     0.12   0.609
  S230                      20.00       0.00       0.00       8.85       2.82       5.76       8.58        0.08     0.04   0.429
  S231                      20.00       0.00       0.00       6.73       4.44       8.77      13.21        0.04     0.03   0.660
  S232                      20.00       0.00       0.00       6.38       5.94       7.62      13.56        0.07     0.04   0.678
  S233                      20.00       0.00       0.00       8.15       0.96      10.84      11.80        0.19     0.14   0.590
  S234                      20.00       0.00       0.00       8.77       1.89       9.11      11.00        0.07     0.03   0.550
  S235                      20.00       0.00       0.00       6.14       5.94       7.87      13.81        0.18     0.12   0.690
  S236                      20.00       0.00       0.00       6.18       4.44       9.32      13.76        0.01     0.01   0.688
  S237                      20.00       0.00       0.00       3.96       8.98       7.05      16.03        0.04     0.03   0.802
  S238                      20.00       0.00       0.00       7.94       1.89      10.07      11.96        0.07     0.05   0.598
  S239                      20.00       0.00       0.00       7.10       4.43       8.40      12.84        0.08     0.05   0.642
  S240                      20.00       0.00       0.00       2.29      12.88       4.72      17.60        0.17     0.14   0.880
  S241                      20.00       0.00       0.00       4.22       8.97       6.78      15.75        0.11     0.09   0.788
  S242                      20.00       0.00       0.00       8.86       1.89       8.75      10.63        0.10     0.05   0.532
  S243                      20.00       0.00       0.00       8.85       1.89       8.78      10.67        0.10     0.05   0.534
  S244                      20.00       0.00       0.00       9.29       0.96       9.45      10.41        0.13     0.06   0.521
  S245                      20.00       0.00       0.00       9.30       0.96       9.39      10.35        0.14     0.07   0.518
  S246                      20.00       0.00       0.00       1.08      16.49       2.26      18.75        0.35     0.26   0.938
  S247                      20.00       0.00       0.00       6.22       5.94       7.78      13.72        0.21     0.14   0.686
  S248                      20.00       0.00       0.00       8.78       2.82       6.07       8.89        0.16     0.08   0.445
  S249                      20.00       0.00       0.00       8.25       1.89       9.75      11.64        0.11     0.07   0.582
  S250                      20.00       0.00       0.00       8.92       1.89       8.53      10.42        0.13     0.06   0.521
  S251                      20.00       0.00       0.00       8.85       2.82       5.75       8.57        0.04     0.02   0.429
  S252                      20.00       0.00       0.00       8.96       0.96      10.03      10.99        0.07     0.04   0.549
  S253                      20.00       0.00       0.00       6.84       5.93       7.01      12.94        0.20     0.11   0.647
  S254                      20.00       0.00       0.00       7.54       0.97      11.45      12.41        0.06     0.05   0.621
  S255                      20.00       0.00       0.00       4.12       8.97       6.88      15.85        0.03     0.03   0.793
  S256                      20.00       0.00       0.00       8.08       0.96      10.91      11.87        0.02     0.01   0.594
  S257                      20.00       0.00       0.00       9.09       2.81       4.61       7.43        0.14     0.05   0.371
  S258                      20.00       0.00       0.00       7.75       0.96      11.24      12.20        0.09     0.08   0.610
  S259                      20.00       0.00       0.00       5.48       5.95       8.52      14.47        0.02     0.01   0.724
  S260                      20.00       0.00       0.00       8.61       2.82       6.84       9.66        0.05     0.03   0.483
  S261                      20.00       0.00       0.00       4.86       8.96       6.14      15.10        0.21     0.15   0.755
  S262                      20.00       0.00       0.00       6.48       5.94       7.52      13.46        0.08     0.05   0.673
  S263                      20.00       0.00       0.00       6.68       0.97      12.32      13.29        0.01     0.01   0.664
  S264                      20.00       0.00       0.00       1.08      16.49       2.26      18.75        0.36     0.27   0.938
  S265                      20.00       0.00       0.00       7.82       1.89      10.19      12.08        0.01     0.01   0.604
  S266                      20.00       0.00       0.00       5.89       5.94       8.12      14.06        0.10     0.08   0.703
  S267                      20.00       0.00       0.00       8.77       1.89       9.10      10.99        0.07     0.03   0.549
  S268                      20.00       0.00       0.00       8.55       1.89       9.45      11.34        0.04     0.02   0.567
  S269                      20.00       0.00       0.00       7.02       0.97      11.97      12.94        0.02     0.02   0.647
  S270                      20.00       0.00       0.00       9.01       1.89       8.13      10.02        0.19     0.08   0.501
  S271                      20.00       0.00       0.00       4.93       8.95       6.07      15.03        0.25     0.17   0.751
  S272                      20.00       0.00       0.00       9.06       2.81       4.74       7.56        0.12     0.05   0.378
  S273                      20.00       0.00       0.00       8.93       1.89       8.45      10.34        0.14     0.06   0.517
  S274                      20.00       0.00       0.00       9.08       2.81       4.66       7.48        0.13     0.05   0.374
  S275                      20.00       0.00       0.00       6.30       4.44       9.21      13.65        0.02     0.01   0.683
  S276                      20.00       0.00       0.00       4.42       8.96       6.59      15.55        0.23     0.18   0.778
  S277                      20.00       0.00       0.00       8.98       2.82       5.14       7.96        0.16     0.07   0.398
  S278                      20.00       0.00       0.00       8.76       2.82       6.16       8.98        0.14     0.07   0.449
  S279                      20.00       0.00       0.00       7.62       1.89      10.39      12.28        0.04     0.03   0.614
  S280                      20.00       0.00       0.00       9.29       0.96       9.46      10.42        0.13     0.06   0.521
  S281                      20.00       0.00       0.00       2.24      12.90       4.79      17.68        0.04     0.03   0.884
  S282                      20.00       0.00       0.00       8.86       1.89       8.74      10.62        0.05     0.02   0.531
  S283                      20.00       0.00       0.00       1.08      16.49       2.26      18.75        0.36     0.27   0.938
  S284                      20.00       0.00       0.00       8.36       1.89       9.64      11.53        0.13     0.08   0.577
  S285                      20.00       0.00       0.00       7.74       1.89      10.27      12.16        0.05     0.04   0.608
  S286                      20.00       0.00       0.00       6.61       5.94       7.40      13.33        0.23     0.14   0.667
  S287                      20.00       0.00       0.00       9.02       2.82       4.93       7.74        0.10     0.04   0.387
  S288                      20.00       0.00       0.00       5.45       5.95       8.55      14.50        0.01     0.01   0.725
  S289                      20.00       0.00       0.00       8.80       1.89       8.98      10.87        0.08     0.04   0.544
  S290                      20.00       0.00       0.00       8.21       0.96      10.78      11.74        0.02     0.02   0.587
  S291                      20.00       0.00       0.00       8.20       0.96      10.79      11.75        0.20     0.15   0.587
  S292                      20.00       0.00       0.00       6.09       5.94       7.91      13.86        0.24     0.17   0.693
  S293                      20.00       0.00       0.00       8.97       2.82       5.17       7.99        0.08     0.03   0.400
  S294                      20.00       0.00       0.00       7.42       4.43       8.08      12.51        0.21     0.12   0.626
  S295                      20.00       0.00       0.00       1.08      16.49       2.27      18.76        0.30     0.22   0.938
  S296                      20.00       0.00       0.00       8.83       2.82       5.84       8.65        0.07     0.03   0.433
  S297                      20.00       0.00       0.00       8.77       2.82       6.14       8.96        0.14     0.07   0.448
  S298                      20.00       0.00       0.00       7.65       0.97      11.34      12.30        0.08     0.07   0.615
  S299                      20.00       0.00       0.00       7.75       4.43       7.06      11.49        0.13     0.06   0.574
  S300                      20.00       0.00       0.00       6.83       5.94       7.06      12.99        0.18     0.10   0.650
  S301                      20.00       0.00       0.00       5.24       5.96       8.77      14.73        0.01     0.01   0.736
  S302                      20.00       0.00       0.00       8.61       1.89       9.40      11.29        0.05     0.03   0.564
  S303                      20.00       0.00       0.00       9.38       0.96       9.11      10.07        0.19     0.08   0.503
  S304                      20.00       0.00       0.00       8.55       1.89       9.45      11.34        0.04     0.02   0.567
  S305                      20.00       0.00       0.00       8.02       1.89       9.98      11.87        0.02     0.01   0.594
  S306                      20.00       0.00       0.00       8.96       1.89       8.34      10.23        0.16     0.07   0.511
  S307                      20.00       0.00       0.00       8.61       1.89       9.40      11.29        0.05     0.03   0.564
  S308                      20.00       0.00       0.00       6.50       5.94       7.50      13.44        0.19     0.12   0.672
  S309                      20.00       0.00       0.00       4.03       8.97       6.98      15.95        0.04     0.04   0.798
  S310                      20.00       0.00       0.00       6.10       5.94       7.90      13.84        0.04     0.03   0.692
  S311                      20.00       0.00       0.00       8.93       1.89       8.45      10.34        0.14     0.06   0.517
  S312                      20.00       0.00       0.00       8.68       1.89       9.32      11.21        0.20     0.11   0.561
  S313                      20.00       0.00       0.00       6.21       5.94       7.80      13.74        0.21     0.14   0.687
  S314                      20.00       0.00       0.00       4.38       8.96       6.63      15.59        0.30     0.23   0.780
  S315                      20.00       0.00       0.00       8.83       2.82       5.87       8.69        0.07     0.03   0.435
  S316                      20.00       0.00       0.00       9.35       0.96       9.20      10.16        0.17     0.08   0.508
  S317                      20.00       0.00       0.00       9.25       0.96       9.62      10.58        0.11     0.05   0.529
  S318                      20.00       0.00       0.00       9.37       0.96       9.14      10.10        0.19     0.08   0.505
  S319                      20.00       0.00       0.00       4.58       8.96       6.43      15.39        0.20     0.15   0.769
  S320                      20.00       0.00       0.00       7.03       4.43       8.47      12.90        0.07     0.05   0.645
  S321                      20.00       0.00       0.00       8.69       2.82       6.47       9.29        0.03     0.02   0.465
  S322                      20.00       0.00       0.00       8.44       0.96      10.55      11.51        0.03     0.02   0.576
  S323                      20.00       0.00       0.00       8.90       2.82       5.52       8.34        0.10     0.05   0.417
  S324                      20.00       0.00       0.00       6.63       5.94       7.38      13.31        0.23     0.14   0.666
  S325                      20.00       0.00       0.00       9.00       1.89       8.20      10.09        0.18     0.07   0.504
  S326                      20.00       0.00       0.00       7.24       4.43       8.26      12.69        0.05     0.03   0.634
  S327                      20.00       0.00       0.00       5.91       5.94       8.09      14.03        0.16     0.12   0.702
  S328                      20.00       0.00       0.00       7.63       4.43       7.54      11.97        0.15     0.08   0.598
  S329                      20.00       0.00       0.00       5.98       5.94       8.03      13.97        0.19     0.14   0.698
  S330                      20.00       0.00       0.00       9.01       1.89       8.15      10.04        0.19     0.08   0.502
  S331                      20.00       0.00       0.00       8.04       1.89       9.96      11.85        0.08     0.05   0.593
  S332                      20.00       0.00       0.00       7.86       4.42       6.59      11.01        0.22     0.10   0.550
  S333                      20.00       0.00       0.00       6.81       5.94       7.15      13.08        0.16     0.09   0.654
  S334                      20.00       0.00       0.00       5.89       5.94       8.12      14.06        0.10     0.08   0.703
  S335                      20.00       0.00       0.00       7.73       0.96      11.26      12.22        0.09     0.07   0.611
  S336                      20.00       0.00       0.00       6.05       5.94       7.96      13.90        0.15     0.10   0.695
  S337                      20.00       0.00       0.00       8.30       1.89       9.71      11.60        0.01     0.01   0.580
  S338                      20.00       0.00       0.00       1.08      16.49       2.26      18.76        0.33     0.24   0.938
  S339                      20.00       0.00       0.00       6.51       1.90      11.50      13.40        0.00     0.00   0.670
  S340                      20.00       0.00       0.00       8.96       1.89       8.36      10.25        0.15     0.06   0.512
  S341                      20.00       0.00       0.00       7.45       0.97      11.54      12.50        0.05     0.04   0.625
  S342                      20.00       0.00       0.00       1.07      16.50       2.27      18.77        0.24     0.18   0.938
  S343                      20.00       0.00       0.00       6.16       5.94       7.84      13.78        0.19     0.13   0.689
  S344                      20.00       0.00       0.00       6.76       4.44       8.74      13.18        0.07     0.05   0.659
  S345                      20.00       0.00       0.00       8.82       1.89       8.92      10.81        0.08     0.04   0.540
  S346                      20.00       0.00       0.00       8.38       1.89       9.63      11.52        0.13     0.08   0.576
  S347                      20.00       0.00       0.00       9.02       1.89       8.11       9.99        0.20     0.08   0.500
  S348                      20.00       0.00       0.00       9.25       0.96       9.59      10.55        0.11     0.06   0.527
  S349                      20.00       0.00       0.00       9.98       0.44       7.99       8.43        0.14     0.04   0.422
  S350                      20.00       0.00       0.00       8.74       1.89       9.24      11.13        0.06     0.03   0.556
  S351                      20.00       0.00       0.00       6.87       5.93       6.88      12.81        0.24     0.13   0.641
  S352                      20.00       0.00       0.00       9.26       0.96       9.56      10.52        0.12     0.06   0.526
  S353                      20.00       0.00       0.00       8.98       2.82       5.16       7.98        0.15     0.07   0.399
  S354                      20.00       0.00       0.00       8.14       1.89       9.86      11.75        0.10     0.06   0.588
  S355                      20.00       0.00       0.00       6.55       5.94       7.45      13.39        0.20     0.13   0.670
  S356                      20.00       0.00       0.00       8.93       1.89       8.47      10.36        0.14     0.06   0.518
  S357                      20.00       0.00       0.00       8.49       1.89       9.51      11.40        0.04     0.02   0.570
  S358                      20.00       0.00       0.00       9.36       0.96       9.15      10.11        0.19     0.08   0.505
  S359                      20.00       0.00       0.00       7.26       1.89      10.75      12.64        0.01     0.00   0.632
  S360                      20.00       0.00       0.00       9.00       1.89       8.18      10.07        0.18     0.07   0.503
  S361                      20.00       0.00       0.00       8.98       1.89       8.25      10.14        0.17     0.07   0.507
  S362                      20.00       0.00       0.00       9.14       1.89       7.58       9.47        0.15     0.05   0.473
  S363                      20.00       0.00       0.00       8.56       1.89       9.44      11.33        0.13     0.07   0.567
  S364                      20.00       0.00       0.00       9.90       0.44       8.33       8.77        0.11     0.03   0.439
  S365                      20.00       0.00       0.00       8.91       1.89       8.54      10.42        0.13     0.06   0.521
  S366                      20.00       0.00       0.00       9.94       0.44       8.15       8.59        0.12     0.04   0.430
  S367                      20.00       0.00       0.00       8.82       1.89       8.92      10.81        0.08     0.04   0.540
  S368                      20.00       0.00       0.00       9.84       0.44       8.58       9.02        0.09     0.03   0.451
  S369                      20.00       0.00       0.00       2.31      12.87       4.70      17.58        0.27     0.21   0.879
  S370                      20.00       0.00       0.00       4.48       8.96       6.53      15.49        0.28     0.22   0.774
  S371                      20.00       0.00       0.00       5.41       5.95       8.60      14.55        0.04     0.03   0.727
  S372                      20.00       0.00       0.00       8.88       1.89       8.70      10.58        0.11     0.05   0.529
  S373                      20.00       0.00       0.00       1.08      16.49       2.26      18.75        0.35     0.25   0.938
  S374                      20.00       0.00       0.00       3.90       8.98       7.11      16.09        0.03     0.02   0.805
  S375                      20.00       0.00       0.00       5.65       5.95       8.35      14.30        0.06     0.04   0.715
  S376                      20.00       0.00       0.00       2.33      12.87       4.69      17.56        0.35     0.27   0.878
  S377                      20.00       0.00       0.00       8.77       1.89       9.13      11.01        0.06     0.03   0.551
  S378                      20.00       0.00       0.00       8.70       1.89       9.30      11.19        0.20     0.11   0.560
  S379                      20.00       0.00       0.00       8.81       2.82       5.95       8.77        0.06     0.03   0.439
  S380                      20.00       0.00       0.00       6.86       4.43       8.64      13.08        0.08     0.06   0.654
  S381                      20.00       0.00       0.00       8.89       1.89       8.62      10.51        0.12     0.05   0.526
  S382                      20.00       0.00       0.00       7.70       4.43       7.25      11.68        0.22     0.11   0.584
  S383                      20.00       0.00       0.00       8.24       2.83       8.38      11.20        0.00     0.00   0.560
  S384                      20.00       0.00       0.00       6.30       5.94       7.70      13.64        0.13     0.09   0.682
  S385                      20.00       0.00       0.00       7.02       0.97      11.97      12.94        0.02     0.02   0.647
  S386                      20.00       0.00       0.00       4.70       8.96       6.30      15.26        0.14     0.10   0.763
  S387                      20.00       0.00       0.00       7.64       1.89      10.37      12.26        0.04     0.03   0.613
  S388                      20.00       0.00       0.00       7.57       1.89      10.44      12.33        0.04     0.03   0.616
  S389                      20.00       0.00       0.00       9.37       0.96       9.13      10.10        0.19     0.08   0.505
  S390                      20.00       0.00       0.00       4.50       8.96       6.51      15.47        0.07     0.05   0.773
  S391                      20.00       0.00       0.00      10.01       0.44       7.84       8.28        0.16     0.04   0.414
  S392                      20.00       0.00       0.00       8.66       2.82       6.59       9.41        0.01     0.01   0.471
  S393                      20.00       0.00       0.00       8.94       1.89       8.42      10.31        0.14     0.06   0.516
  S394                      20.00       0.00       0.00       4.89       8.96       6.11      15.06        0.23     0.16   0.753
  S395                      20.00       0.00       0.00       1.06      16.52       2.29      18.81        0.06     0.04   0.940
  S396                      20.00       0.00       0.00       6.57       4.44       8.94      13.37        0.05     0.03   0.669
  S397                      20.00       0.00       0.00       9.02       2.82       4.94       7.75        0.10     0.04   0.388
  S398                      20.00       0.00       0.00       5.74       5.95       8.27      14.21        0.11     0.08   0.711
  S399                      20.00       0.00       0.00       8.68       2.82       6.54       9.36        0.03     0.02   0.468
  S400                      20.00       0.00       0.00       8.79       1.89       9.05      10.94        0.07     0.04   0.547
  S401                      20.00       0.00       0.00       6.79       5.94       7.19      13.13        0.15     0.09   0.656
  S402                      20.00       0.00       0.00       9.32       0.96       9.34      10.31        0.15     0.07   0.515
  S403                      20.00       0.00       0.00       4.51       8.96       6.50      15.46        0.16     0.12   0.773
  S404                      20.00       0.00       0.00       7.52       4.43       7.98      12.41        0.16     0.09   0.620
  S405                      20.00       0.00       0.00       4.28       8.97       6.73      15.69        0.13     0.11   0.785
  S406                      20.00       0.00       0.00       8.67       1.89       9.33      11.22        0.20     0.11   0.561
  S407                      20.00       0.00       0.00       9.09       2.81       4.59       7.40        0.14     0.06   0.370
  S408                      20.00       0.00       0.00       8.76       2.82       6.16       8.98        0.05     0.02   0.449
  S409                      20.00       0.00       0.00       8.63       1.89       9.38      11.26        0.19     0.10   0.563
  S410                      20.00       0.00       0.00       8.86       2.82       5.72       8.53        0.08     0.04   0.427
  S411                      20.00       0.00       0.00       8.82       1.89       8.93      10.82        0.08     0.04   0.541
  S412                      20.00       0.00       0.00       8.96       1.89       8.35      10.24        0.15     0.07   0.512
  S413                      20.00       0.00       0.00       7.59       1.89      10.42      12.31        0.04     0.03   0.616
  S414                      20.00       0.00       0.00       8.98       1.89       8.28      10.16        0.08     0.03   0.508
  S415                      20.00       0.00       0.00       7.45       4.43       8.06      12.49        0.14     0.08   0.624
  S416                      20.00       0.00       0.00       4.14       8.97       6.87      15.84        0.04     0.03   0.792
  S417                      20.00       0.00       0.00       6.70       5.94       7.31      13.24        0.12     0.07   0.662
  S418                      20.00       0.00       0.00       8.59       1.89       9.41      11.30        0.05     0.03   0.565
  S419                      20.00       0.00       0.00       6.77       4.44       8.73      13.17        0.07     0.05   0.658
  S420                      20.00       0.00       0.00       2.31      12.87       4.70      17.58        0.25     0.20   0.879
  S421                      20.00       0.00       0.00       7.61       4.43       7.62      12.04        0.06     0.03   0.602
  S422                      20.00       0.00       0.00       5.94       5.94       8.07      14.01        0.17     0.13   0.700
  S423                      20.00       0.00       0.00       7.69       4.43       7.31      11.74        0.20     0.10   0.587
  S424                      20.00       0.00       0.00       8.46       1.89       9.54      11.43        0.15     0.09   0.572
  S425                      20.00       0.00       0.00       7.53       1.89      10.47      12.36        0.03     0.03   0.618
  S426                      20.00       0.00       0.00       4.92       8.95       6.09      15.04        0.24     0.17   0.752
  S427                      20.00       0.00       0.00       8.89       2.82       5.56       8.38        0.10     0.04   0.419
  S428                      20.00       0.00       0.00       8.70       2.82       6.46       9.28        0.09     0.05   0.464
  S429                      20.00       0.00       0.00       8.71       2.82       6.40       9.22        0.03     0.02   0.461
  S430                      20.00       0.00       0.00       6.42       5.94       7.59      13.52        0.07     0.05   0.676
  S431                      20.00       0.00       0.00       8.82       2.82       5.90       8.72        0.03     0.02   0.436
  S432                      20.00       0.00       0.00       6.82       5.94       7.08      13.01        0.18     0.10   0.651
  S433                      20.00       0.00       0.00       8.70       2.82       6.45       9.27        0.03     0.02   0.464
  S434                      20.00       0.00       0.00       6.90       1.89      11.11      13.00        0.01     0.01   0.650
  S435                      20.00       0.00       0.00       2.32      12.87       4.69      17.56        0.32     0.25   0.878
  S436                      20.00       0.00       0.00       8.72       1.89       9.28      11.17        0.16     0.09   0.558
  S437                      20.00       0.00       0.00       8.69       1.89       9.31      11.20        0.20     0.11   0.560
  S438                      20.00       0.00       0.00       5.22       5.96       8.79      14.75        0.02     0.02   0.737
  S439                      20.00       0.00       0.00       4.26       8.97       6.75      15.72        0.12     0.10   0.786
  S440                      20.00       0.00       0.00       8.50       0.96      10.49      11.45        0.04     0.02   0.572
  S441                      20.00       0.00       0.00       6.25       5.94       7.75      13.69        0.12     0.08   0.685
  S442                      20.00       0.00       0.00       8.92       2.82       5.43       8.24        0.11     0.05   0.412
  S443                      20.00       0.00       0.00       8.45       1.89       9.55      11.44        0.15     0.09   0.572
  S444                      20.00       0.00       0.00       7.98       1.89      10.03      11.92        0.07     0.05   0.596
  S445                      20.00       0.00       0.00       7.79       0.96      11.20      12.16        0.10     0.08   0.608
  S446                      20.00       0.00       0.00       7.87       0.96      11.12      12.09        0.11     0.09   0.604
  S447                      20.00       0.00       0.00       9.22       0.96       9.73      10.69        0.10     0.05   0.535
  S448                      20.00       0.00       0.00       8.29       1.89       9.71      11.60        0.12     0.07   0.580
  S449                      20.00       0.00       0.00       9.11       1.89       7.74       9.62        0.13     0.05   0.481
  S450                      20.00       0.00       0.00       4.74       8.96       6.26      15.22        0.15     0.11   0.761
  S451                      20.00       0.00       0.00       9.56       0.44       9.74      10.18        0.03     0.01   0.509
  S452                      20.00       0.00       0.00      10.01       0.44       7.84       8.28        0.16     0.04   0.414
  S453                      20.00       0.00       0.00       8.06       0.96      10.93      11.89        0.16     0.12   0.594
  S454                      20.00       0.00       0.00       4.38       8.96       6.62      15.58        0.20     0.16   0.779
  S455                      20.00       0.00       0.00       4.07       8.97       6.94      15.91        0.08     0.07   0.795
  S456                      20.00       0.00       0.00       7.36       1.89      10.65      12.54        0.01     0.01   0.627
  S457                      20.00       0.00       0.00       8.98       1.89       8.29      10.17        0.16     0.07   0.509
  S458                      20.00       0.00       0.00       8.90       2.82       5.54       8.36        0.10     0.05   0.418
  S459                      20.00       0.00       0.00       9.95       0.44       8.12       8.56        0.13     0.04   0.428
  S460                      20.00       0.00       0.00       7.51       4.43       7.99      12.42        0.16     0.09   0.621
  S461                      20.00       0.00       0.00       8.59       1.89       9.42      11.30        0.18     0.10   0.565
  S462                      20.00       0.00       0.00       7.59       1.89      10.41      12.30        0.01     0.01   0.615
  S463                      20.00       0.00       0.00       8.99       1.89       8.22      10.11        0.18     0.07   0.506
  S464                      20.00       0.00       0.00       2.28      12.88       4.74      17.62        0.13     0.10   0.881
  S465                      20.00       0.00       0.00       3.94       8.98       7.07      16.05        0.01     0.01   0.802
  S466                      20.00       0.00       0.00       8.78       1.89       9.09      10.98        0.20     0.10   0.549
  S467                      20.00       0.00       0.00       7.18       0.97      11.82      12.79        0.03     0.02   0.639
  S468                      20.00       0.00       0.00       8.59       1.89       9.41      11.30        0.05     0.03   0.565
  S469                      20.00       0.00       0.00       8.98       1.89       8.27      10.15        0.17     0.07   0.508
  S470                      20.00       0.00       0.00       1.08      16.50       2.27      18.76        0.25     0.19   0.938
  S471                      20.00       0.00       0.00      10.01       0.44       7.84       8.28        0.16     0.04   0.414
  S472                      20.00       0.00       0.00       7.87       0.96      11.12      12.08        0.12     0.09   0.604
  S473                      20.00       0.00       0.00       9.90       0.44       8.34       8.78        0.11     0.03   0.439
  S474                      20.00       0.00       0.00       9.33       0.96       9.27      10.23        0.16     0.07   0.512
  S475                      20.00       0.00       0.00       3.92       8.98       7.09      16.07        0.03     0.03   0.803
  S476                      20.00       0.00       0.00       8.91       1.89       8.55      10.44        0.13     0.06   0.522
  S477                      20.00       0.00       0.00       7.78       4.42       6.92      11.34        0.15     0.07   0.567
  S478                      20.00       0.00       0.00       9.15       1.89       7.53       9.42        0.16     0.06   0.471
  S479                      20.00       0.00       0.00       8.73       2.82       6.33       9.15        0.11     0.06   0.457
  S480                      20.00       0.00       0.00       8.61       2.82       6.83       9.65        0.06     0.03   0.482
  S481                      20.00       0.00       0.00       9.26       0.96       9.56      10.52        0.12     0.06   0.526
  S482                      20.00       0.00       0.00       7.10       4.43       8.40      12.84        0.08     0.05   0.642
  S483                      20.00       0.00       0.00       4.59       8.96       6.41      15.37        0.21     0.15   0.769
  S484                      20.00       0.00       0.00       6.04       5.94       7.97      13.91        0.22     0.15   0.695
  S485                      20.00       0.00       0.00       1.05      16.52       2.29      18.81        0.06     0.04   0.941
  S486                      20.00       0.00       0.00       9.31       0.96       9.36      10.32        0.15     0.07   0.516
  S487                      20.00       0.00       0.00       8.80       2.82       6.00       8.82        0.06     0.03   0.441
  S488                      20.00       0.00       0.00       8.07       0.96      10.92      11.88        0.16     0.12   0.594
  S489                      20.00       0.00       0.00       7.70       4.43       7.25      11.67        0.22     0.11   0.584
  S490                      20.00       0.00       0.00       8.89       1.89       8.63      10.52        0.11     0.05   0.526
  S491                      20.00       0.00       0.00       9.18       0.96       9.80      10.77        0.09     0.05   0.538
  S492                      20.00       0.00       0.00       8.82       1.89       8.91      10.80        0.08     0.04   0.540
  S493                      20.00       0.00       0.00       7.77       0.96      11.22      12.19        0.10     0.08   0.609
  S494                      20.00       0.00       0.00       7.52       4.43       7.96      12.39        0.17     0.09   0.619
  S495                      20.00       0.00       0.00       9.96       0.44       8.04       8.48        0.13     0.04   0.424
  S496                      20.00       0.00       0.00       2.32      12.87       4.69      17.56        0.33     0.26   0.878
  S497                      20.00       0.00       0.00       7.59       4.43       7.70      12.13        0.12     0.07   0.606
  S498                      20.00       0.00       0.00       8.21       1.89       9.79      11.68        0.03     0.02   0.584
  S499                      20.00       0.00       0.00      10.02       0.44       7.80       8.24        0.16     0.04   0.412
  S500                      20.00       0.00       0.00       8.90       2.82       5.52       8.33        0.10     0.05   0.417
  S501                      20.00       0.00       0.00       8.08       1.89       9.93      11.82        0.09     0.06   0.591
  S502                      20.00       0.00       0.00       4.06       8.97       6.95      15.92        0.05     0.04   0.796
  S503                      20.00       0.00       0.00       8.61       1.89       9.40      11.29        0.18     0.10   0.564
  S504                      20.00       0.00       0.00       2.32      12.87       4.70      17.57        0.29     0.23   0.879
  S505                      20.00       0.00       0.00       9.83       0.44       8.64       9.08        0.08     0.03   0.454
  S506                      20.00       0.00       0.00       2.21      12.91       4.83      17.74        0.01     0.01   0.887
  S507                      20.00       0.00       0.00       8.99       1.89       8.22      10.11        0.18     0.07   0.505
  S508                      20.00       0.00       0.00       8.26       1.89       9.74      11.63        0.11     0.07   0.581
  S509                      20.00       0.00       0.00       8.12       0.96      10.87      11.83        0.18     0.13   0.592
  S510                      20.00       0.00       0.00       2.31      12.87       4.70      17.58        0.27     0.21   0.879
  S511                      20.00       0.00       0.00       6.84       5.93       7.00      12.94        0.20     0.11   0.647
  S512                      20.00       0.00       0.00       4.42       8.96       6.59      15.55        0.12     0.09   0.777
  S513                      20.00       0.00       0.00       9.34       0.96       9.27      10.23        0.16     0.07   0.511
  S514                      20.00       0.00       0.00       8.62       1.89       9.38      11.27        0.19     0.10   0.563
  S515                      20.00       0.00       0.00       6.05       5.94       7.96      13.90        0.22     0.16   0.695
  S516                      20.00       0.00       0.00       8.78       2.82       6.09       8.91        0.15     0.08   0.445
  S517                      20.00       0.00       0.00       7.50       0.97      11.50      12.46        0.05     0.05   0.623
  S518                      20.00       0.00       0.00       8.76       1.89       9.16      11.05        0.18     0.10   0.553
  S519                      20.00       0.00       0.00       2.28      12.88       4.73      17.61        0.15     0.12   0.881
  S520                      20.00       0.00       0.00       7.44       0.97      11.55      12.51        0.05     0.04   0.626
  S521                      20.00       0.00       0.00       8.91       2.82       5.48       8.30        0.11     0.05   0.415
  S522                      20.00       0.00       0.00       8.88       1.89       8.69      10.58        0.11     0.05   0.529
  S523                      20.00       0.00       0.00       8.26       0.96      10.73      11.69        0.22     0.16   0.585
  S524                      20.00       0.00       0.00       4.21       8.97       6.79      15.76        0.15     0.12   0.788
  S525                      20.00       0.00       0.00       8.73       1.89       9.26      11.15        0.22     0.12   0.557
  S526                      20.00       0.00       0.00       8.74       2.82       6.25       9.07        0.04     0.02   0.453
  S527                      20.00       0.00       0.00       7.00       1.89      11.01      12.90        0.00     0.00   0.645
  S528                      20.00       0.00       0.00       8.91       2.82       5.46       8.28        0.06     0.02   0.414
  S529                      20.00       0.00       0.00       7.77       1.89      10.24      12.13        0.01     0.01   0.606
  S530                      20.00       0.00       0.00       8.53       1.89       9.47      11.36        0.04     0.02   0.568
  S531                      20.00       0.00       0.00       8.10       1.89       9.90      11.79        0.09     0.06   0.590
  S532                      20.00       0.00       0.00       9.06       0.96       9.92      10.89        0.08     0.04   0.544
  S533                      20.00       0.00       0.00       8.86       1.89       8.78      10.66        0.04     0.02   0.533
  S534                      20.00       0.00       0.00       8.85       2.82       5.75       8.57        0.08     0.04   0.428
  S535                      20.00       0.00       0.00       4.33       8.96       6.67      15.64        0.09     0.07   0.782
  S536                      20.00       0.00       0.00       8.76       2.82       6.15       8.97        0.14     0.07   0.449
  S537                      20.00       0.00       0.00       1.08      16.49       2.27      18.76        0.29     0.21   0.938
  S538                      20.00       0.00       0.00       7.57       4.43       7.76      12.19        0.11     0.06   0.610
  S539                      20.00       0.00       0.00       6.51       4.44       8.99      13.43        0.04     0.03   0.672
  S540                      20.00       0.00       0.00       7.42       4.43       8.08      12.51        0.21     0.12   0.626
  S541                      20.00       0.00       0.00       8.55       1.89       9.46      11.35        0.13     0.07   0.567
  S542                      20.00       0.00       0.00       8.73       2.82       6.29       9.11        0.04     0.02   0.456
  S543                      20.00       0.00       0.00       8.79       2.82       6.06       8.88        0.05     0.03   0.444
  S544                      20.00       0.00       0.00       8.90       2.82       5.55       8.37        0.10     0.05   0.418
  S545                      20.00       0.00       0.00       7.95       1.89      10.06      11.95        0.02     0.01   0.597
  S546                      20.00       0.00       0.00       8.65       1.89       9.35      11.24        0.19     0.11   0.562
  S547                      20.00       0.00       0.00       5.71       4.45       9.81      14.25        0.00     0.00   0.713
  S548                      20.00       0.00       0.00       4.12       8.97       6.88      15.85        0.10     0.08   0.793
  S549                      20.00       0.00       0.00       4.76       8.96       6.25      15.20        0.16     0.11   0.760
  S550                      20.00       0.00       0.00       2.30      12.88       4.72      17.60        0.19     0.15   0.880
  S551                      20.00       0.00       0.00       7.68       1.89      10.32      12.22        0.05     0.03   0.611
  S552                      20.00       0.00       0.00       2.21      12.91       4.83      17.74        0.01     0.01   0.887
  S553                      20.00       0.00       0.00       8.87       2.82       5.66       8.48        0.04     0.02   0.424
  S554                      20.00       0.00       0.00       2.30      12.88       4.71      17.59        0.23     0.18   0.879
  S555                      20.00       0.00       0.00       7.93       1.89      10.08      11.97        0.05     0.04   0.598
  S556                      20.00       0.00       0.00       2.26      12.89       4.76      17.65        0.07     0.06   0.883
  S557                      20.00       0.00       0.00       9.04       2.81       4.85       7.67        0.11     0.04   0.383
  S558                      20.00       0.00       0.00       8.79       1.89       9.04      10.93        0.07     0.04   0.546
  S559                      20.00       0.00       0.00       5.91       4.45       9.60      14.05        0.01     0.00   0.702
  S560                      20.00       0.00       0.00       8.95       2.82       5.29       8.11        0.13     0.06   0.405
  S561                      20.00       0.00       0.00       9.38       0.96       9.08      10.04        0.20     0.08   0.502
  S562                      20.00       0.00       0.00       7.83       0.96      11.16      12.13        0.11     0.09   0.606
  S563                      20.00       0.00       0.00       7.58       4.43       7.75      12.18        0.22     0.12   0.609
  S564                      20.00       0.00       0.00       8.04       1.89       9.96      11.85        0.08     0.05   0.593
  S565                      20.00       0.00       0.00       7.51       0.97      11.49      12.45        0.06     0.05   0.623
  S566                      20.00       0.00       0.00       7.06       1.89      10.95      12.84        0.01     0.01   0.642
  S567                      20.00       0.00       0.00       9.89       0.44       8.38       8.82        0.10     0.03   0.441
  S568                      20.00       0.00       0.00       7.80       0.96      11.19      12.16        0.10     0.08   0.608
  S569                      20.00       0.00       0.00       9.05       2.81       4.81       7.63        0.11     0.05   0.381
  S570                      20.00       0.00       0.00       9.89       0.44       8.35       8.79        0.10     0.03   0.439
  S571                      20.00       0.00       0.00       7.80       0.96      11.19      12.16        0.10     0.08   0.608
  S572                      20.00       0.00       0.00       7.03       4.43       8.47      12.90        0.04     0.02   0.645
  S573                      20.00       0.00       0.00       4.49       8.96       6.51      15.47        0.15     0.12   0.774
  S574                      20.00       0.00       0.00       4.50       8.96       6.50      15.47        0.16     0.12   0.773
  S575                      20.00       0.00       0.00       2.31      12.87       4.70      17.58        0.27     0.21   0.879
  S576                      20.00       0.00       0.00       4.36       8.96       6.65      15.61        0.09     0.07   0.781
  S577                      20.00       0.00       0.00       5.43       5.95       8.57      14.53        0.04     0.04   0.726
  S578                      20.00       0.00       0.00       1.05      16.52       2.30      18.82        0.04     0.03   0.941
  S579                      20.00       0.00       0.00       8.90       1.89       8.58      10.47        0.12     0.05   0.523
  S580                      20.00       0.00       0.00       4.54       8.96       6.47      15.43        0.18     0.13   0.771
  S581                      20.00       0.00       0.00       8.49       1.89       9.51      11.40        0.16     0.09   0.570
  S582                      20.00       0.00       0.00       7.05       0.97      11.95      12.91        0.02     0.02   0.646
  S583                      20.00       0.00       0.00       1.05      16.53       2.30      18.83        0.03     0.02   0.942
  S584                      20.00       0.00       0.00       9.24       0.96       9.63      10.59        0.11     0.05   0.529
  S585                      20.00       0.00       0.00       1.07      16.50       2.27      18.77        0.20     0.14   0.939
  S586                      20.00       0.00       0.00       6.86       1.89      11.15      13.04        0.01     0.01   0.652
  S587                      20.00       0.00       0.00       8.95       1.89       8.37      10.26        0.15     0.06   0.513
  S588                      20.00       0.00       0.00       8.46       1.89       9.54      11.43        0.15     0.09   0.572
  S589                      20.00       0.00       0.00       9.87       0.44       8.44       8.88        0.10     0.03   0.444
  S590                      20.00       0.00       0.00       3.93       8.98       7.08      16.06        0.04     0.03   0.803
  S591                      20.00       0.00       0.00       8.91       1.89       8.54      10.43        0.13     0.06   0.522
  S592                      20.00       0.00       0.00       9.09       2.81       4.61       7.42        0.14     0.05   0.371
  S593                      20.00       0.00       0.00       7.61       4.43       7.63      12.06        0.06     0.03   0.603
  S594                      20.00       0.00       0.00       9.34       0.96       9.24      10.20        0.17     0.07   0.510
  S595                      20.00       0.00       0.00       9.62       0.44       9.47       9.91        0.04     0.02   0.495
  S596                      20.00       0.00       0.00       6.39       5.94       7.61      13.55        0.15     0.10   0.678
  S597                      20.00       0.00       0.00       6.56       5.94       7.45      13.38        0.21     0.13   0.669
[...]
  S848                      20.00       0.00       0.00       8.58       1.89       9.42      11.31        0.18     0.10   0.565
  S849                      20.00       0.00       0.00       4.26       8.97       6.75      15.71        0.19     0.15   0.786
  S850                      20.00       0.00       0.00       7.89       0.96      11.10      12.06        0.12     0.10   0.603
  S851                      20.00       0.00       0.00       8.92       1.89       8.51      10.40        0.13     0.06   0.520
  S852                      20.00       0.00       0.00       8.99       2.82       5.07       7.89        0.09     0.04   0.394
  S853                      20.00       0.00       0.00       7.58       4.43       7.72      12.14        0.05     0.03   0.607
  S854                      20.00       0.00       0.00       9.00       1.89       8.19      10.08        0.18     0.07   0.504
  S855                      20.00       0.00       0.00       9.18       0.96       9.80      10.77        0.09     0.05   0.538
  S856                      20.00       0.00       0.00       6.06       5.94       7.95      13.89        0.23     0.16   0.694
  S857                      20.00       0.00       0.00       6.85       5.93       6.98      12.91        0.21     0.12   0.646
  S858                      20.00       0.00       0.00       4.22       8.97       6.78      15.75        0.06     0.04   0.787
  S859                      20.00       0.00       0.00       7.05       4.43       8.45      12.88        0.08     0.05   0.644
  S860                      20.00       0.00       0.00       2.32      12.87       4.69      17.56        0.32     0.25   0.878
  S861                      20.00       0.00       0.00       7.34       4.43       8.16      12.59        0.12     0.07   0.630
  S862                      20.00       0.00       0.00       8.26       0.96      10.72      11.69        0.03     0.02   0.584
  S863                      20.00       0.00       0.00       4.36       8.96       6.64      15.61        0.28     0.22   0.780
  S864                      20.00       0.00       0.00       8.87       1.89       8.71      10.60        0.10     0.05   0.530
  S865                      20.00       0.00       0.00       4.13       8.97       6.87      15.84        0.04     0.03   0.792
  S866                      20.00       0.00       0.00       7.90       1.89      10.10      11.99        0.07     0.05   0.599
  S867                      20.00       0.00       0.00       2.29      12.88       4.72      17.60        0.17     0.14   0.880
  S868                      20.00       0.00       0.00       4.56       8.96       6.45      15.41        0.19     0.14   0.770
  S869                      20.00       0.00       0.00       2.31      12.87       4.71      17.58        0.25     0.20   0.879
  S870                      20.00       0.00       0.00       9.36       0.96       9.15      10.11        0.19     0.08   0.505
  S871                      20.00       0.00       0.00       9.39       0.44      10.15      10.59        0.02     0.01   0.529
  S872                      20.00       0.00       0.00       6.86       1.89      11.15      13.04        0.01     0.01   0.652
  S873                      20.00       0.00       0.00       8.95       1.89       8.38      10.27        0.15     0.06   0.513
  S874                      20.00       0.00       0.00       8.88       1.89       8.70      10.58        0.11     0.05   0.529
  S875                      20.00       0.00       0.00       8.90       2.82       5.54       8.36        0.10     0.05   0.418
  S876                      20.00       0.00       0.00       4.16       8.97       6.84      15.81        0.12     0.10   0.791
  S877                      20.00       0.00       0.00       8.87       1.89       8.72      10.61        0.10     0.05   0.530
  S878                      20.00       0.00       0.00       7.25       4.43       8.26      12.69        0.16     0.10   0.634
  S879                      20.00       0.00       0.00       4.36       8.96       6.65      15.61        0.28     0.22   0.781
  S880                      20.00       0.00       0.00       6.28       5.94       7.72      13.66        0.06     0.04   0.683
  S881                      20.00       0.00       0.00       7.43       4.43       8.07      12.50        0.07     0.04   0.625
  S882                      20.00       0.00       0.00       7.58       4.43       7.72      12.15        0.12     0.06   0.607
  S883                      20.00       0.00       0.00       8.08       1.89       9.93      11.82        0.09     0.06   0.591
  S884                      20.00       0.00       0.00       7.59       4.43       7.70      12.12        0.24     0.13   0.606
  S885                      20.00       0.00       0.00       8.43       1.89       9.57      11.46        0.04     0.02   0.573
  S886                      20.00       0.00       0.00       1.06      16.51       2.29      18.80        0.08     0.06   0.940
  S887                      20.00       0.00       0.00       8.05       0.96      10.94      11.91        0.16     0.12   0.595
  S888                      20.00       0.00       0.00       7.68       1.89      10.32      12.22        0.05     0.03   0.611
  S889                      20.00       0.00       0.00       2.23      12.90       4.80      17.69        0.03     0.02   0.885
  S890                      20.00       0.00       0.00       4.36       8.96       6.64      15.61        0.28     0.22   0.780
  S891                      20.00       0.00       0.00       8.49       2.82       7.35      10.17        0.02     0.02   0.508
  S892                      20.00       0.00       0.00       8.24       0.96      10.74      11.71        0.22     0.15   0.585
  S893                      20.00       0.00       0.00       4.38       8.96       6.62      15.59        0.31     0.24   0.779
  S894                      20.00       0.00       0.00       7.49       4.43       8.02      12.45        0.23     0.13   0.622
  S895                      20.00       0.00       0.00       9.91       0.44       8.26       8.70        0.11     0.03   0.435
  S896                      20.00       0.00       0.00       8.39       1.89       9.62      11.50        0.03     0.02   0.575
  S897                      20.00       0.00       0.00       4.91       8.96       6.09      15.04        0.24     0.16   0.752
  S898                      20.00       0.00       0.00       9.04       2.81       4.84       7.66        0.11     0.04   0.383
  S899                      20.00       0.00       0.00       8.14       0.96      10.85      11.81        0.18     0.14   0.591
  S900                      20.00       0.00       0.00       9.93       0.44       8.19       8.63        0.12     0.04   0.432
  S901                      20.00       0.00       0.00       7.59       4.43       7.70      12.13        0.12     0.07   0.606
  S902                      20.00       0.00       0.00       8.67       1.89       9.33      11.22        0.05     0.03   0.561
  S903                      20.00       0.00       0.00       7.30       4.43       8.20      12.63        0.11     0.07   0.632
  S904                      20.00       0.00       0.00       1.07      16.50       2.28      18.78        0.17     0.13   0.939
  S905                      20.00       0.00       0.00       7.34       4.43       8.17      12.60        0.18     0.11   0.630
  S906                      20.00       0.00       0.00       7.87       1.89      10.13      12.02        0.06     0.04   0.601
  S907                      20.00       0.00       0.00       2.27      12.88       4.75      17.63        0.11     0.08   0.882
  S908                      20.00       0.00       0.00       4.05       8.97       6.96      15.93        0.05     0.04   0.797
  S909                      20.00       0.00       0.00       8.32       1.89       9.68      11.57        0.12     0.08   0.579
  S910                      20.00       0.00       0.00       5.97       5.94       8.03      13.98        0.19     0.14   0.699
  S911                      20.00       0.00       0.00       8.88       2.82       5.62       8.44        0.09     0.04   0.422
  S912                      20.00       0.00       0.00       9.81       0.44       8.71       9.15        0.08     0.03   0.457
  S913                      20.00       0.00       0.00       8.86       2.82       5.71       8.52        0.04     0.02   0.426
  S914                      20.00       0.00       0.00       7.70       4.43       7.27      11.69        0.22     0.11   0.585
  S915                      20.00       0.00       0.00       6.62       0.97      12.39      13.36        0.00     0.00   0.668
  S916                      20.00       0.00       0.00       7.50       0.97      11.50      12.46        0.05     0.05   0.623
  S917                      20.00       0.00       0.00       8.46       1.89       9.54      11.43        0.15     0.09   0.572
  S918                      20.00       0.00       0.00       6.74       0.97      12.26      13.23        0.01     0.01   0.662
  S919                      20.00       0.00       0.00       9.03       2.82       4.91       7.72        0.10     0.04   0.386
  S920                      20.00       0.00       0.00       2.31      12.88       4.71      17.58        0.24     0.19   0.879
  S921                      20.00       0.00       0.00       9.85       0.44       8.54       8.98        0.09     0.03   0.449
  S922                      20.00       0.00       0.00       4.42       8.96       6.58      15.55        0.23     0.18   0.777
  S923                      20.00       0.00       0.00       8.80       1.89       8.98      10.87        0.08     0.04   0.544
  S924                      20.00       0.00       0.00       7.46       4.43       8.05      12.48        0.15     0.08   0.624
  S925                      20.00       0.00       0.00       8.91       1.89       8.55      10.44        0.13     0.06   0.522
  S926                      20.00       0.00       0.00       8.80       2.82       6.00       8.82        0.03     0.01   0.441
  S927                      20.00       0.00       0.00       2.28      12.88       4.74      17.62        0.13     0.10   0.881
  S928                      20.00       0.00       0.00       4.62       8.96       6.38      15.34        0.23     0.17   0.767
  S929                      20.00       0.00       0.00       8.71       0.96      10.27      11.23        0.05     0.03   0.562
  S930                      20.00       0.00       0.00       8.92       2.82       5.43       8.24        0.11     0.05   0.412
  S931                      20.00       0.00       0.00       9.90       0.44       8.34       8.78        0.11     0.03   0.439
  S932                      20.00       0.00       0.00       9.72       0.44       9.07       9.51        0.06     0.02   0.476
  S933                      20.00       0.00       0.00       9.01       1.89       8.13      10.02        0.19     0.08   0.501
  S934                      20.00       0.00       0.00       6.50       5.94       7.50      13.44        0.19     0.12   0.672
  S935                      20.00       0.00       0.00       6.25       5.94       7.75      13.69        0.12     0.08   0.685
  S936                      20.00       0.00       0.00       4.74       8.96       6.26      15.22        0.15     0.11   0.761
  S937                      20.00       0.00       0.00       3.90       8.98       7.11      16.09        0.02     0.02   0.805
  S938                      20.00       0.00       0.00       6.81       5.94       7.14      13.07        0.16     0.09   0.654
  S939                      20.00       0.00       0.00       8.93       1.89       8.48      10.37        0.13     0.06   0.518
  S940                      20.00       0.00       0.00       8.82       2.82       5.91       8.73        0.06     0.03   0.437
  S941                      20.00       0.00       0.00       7.47       4.43       8.03      12.46        0.03     0.02   0.623
  S942                      20.00       0.00       0.00       8.03       1.89       9.97      11.86        0.08     0.05   0.593
  S943                      20.00       0.00       0.00       2.32      12.87       4.69      17.56        0.32     0.25   0.878
  S944                      20.00       0.00       0.00       4.71       8.96       6.30      15.26        0.30     0.21   0.763
  S945                      20.00       0.00       0.00       7.78       4.42       6.94      11.36        0.15     0.07   0.568
  S946                      20.00       0.00       0.00       4.66       8.96       6.35      15.31        0.26     0.19   0.765
  S947                      20.00       0.00       0.00       9.96       0.44       8.06       8.50        0.13     0.04   0.425
  S948                      20.00       0.00       0.00       4.64       8.96       6.37      15.33        0.11     0.08   0.766
  S949                      20.00       0.00       0.00       8.92       1.89       8.53      10.42        0.13     0.06   0.521
  S950                      20.00       0.00       0.00       7.73       0.96      11.26      12.23        0.09     0.07   0.611
  S951                      20.00       0.00       0.00       9.05       0.96       9.94      10.90        0.08     0.04   0.545
  S952                      20.00       0.00       0.00       9.38       0.96       9.10      10.06        0.19     0.08   0.503
  S953                      20.00       0.00       0.00       9.72       0.44       9.09       9.53        0.05     0.02   0.477
  S954                      20.00       0.00       0.00       7.36       4.43       8.14      12.57        0.19     0.11   0.628
  S955                      20.00       0.00       0.00       4.60       8.96       6.40      15.36        0.22     0.16   0.768
  S956                      20.00       0.00       0.00       9.16       0.96       9.82      10.79        0.09     0.05   0.539
  S957                      20.00       0.00       0.00       6.51       4.44       9.00      13.44        0.01     0.01   0.672
  S958                      20.00       0.00       0.00       2.32      12.87       4.70      17.57        0.28     0.22   0.879
  S959                      20.00       0.00       0.00       1.07      16.50       2.28      18.78        0.14     0.10   0.939
  S960                      20.00       0.00       0.00       8.52       0.96      10.47      11.43        0.04     0.02   0.571
  S961                      20.00       0.00       0.00       6.10       5.94       7.90      13.84        0.25     0.17   0.692
  S962                      20.00       0.00       0.00       7.89       0.96      11.10      12.06        0.12     0.10   0.603
  S963                      20.00       0.00       0.00       7.74       1.89      10.27      12.16        0.05     0.04   0.608
  S964                      20.00       0.00       0.00       7.94       1.89      10.06      11.95        0.05     0.04   0.598
  S965                      20.00       0.00       0.00       9.01       0.96       9.98      10.94        0.07     0.04   0.547
  S966                      20.00       0.00       0.00       8.88       2.82       5.62       8.44        0.09     0.04   0.422
  S967                      20.00       0.00       0.00       7.67       4.43       7.39      11.82        0.18     0.09   0.591
  S968                      20.00       0.00       0.00       9.04       2.81       4.85       7.66        0.11     0.04   0.383
  S969                      20.00       0.00       0.00       8.79       1.89       9.04      10.93        0.21     0.11   0.546
  S970                      20.00       0.00       0.00       1.04      16.54       2.31      18.85        0.01     0.01   0.943
  S971                      20.00       0.00       0.00       7.93       0.96      11.06      12.03        0.13     0.10   0.601
  S972                      20.00       0.00       0.00       1.07      16.50       2.27      18.77        0.21     0.15   0.939
  S973                      20.00       0.00       0.00       8.96       1.89       8.36      10.24        0.15     0.07   0.512
  S974                      20.00       0.00       0.00       6.79       0.97      12.21      13.18        0.01     0.01   0.659
  S975                      20.00       0.00       0.00       4.03       8.97       6.98      15.96        0.06     0.05   0.798
  S976                      20.00       0.00       0.00       8.64       1.89       9.36      11.25        0.05     0.03   0.563
  S977                      20.00       0.00       0.00       9.89       0.44       8.37       8.81        0.10     0.03   0.440
  S978                      20.00       0.00       0.00       2.32      12.87       4.70      17.57        0.29     0.23   0.879
  S979                      20.00       0.00       0.00       7.66       4.43       7.43      11.86        0.17     0.09   0.593
  S980                      20.00       0.00       0.00       9.34       0.96       9.27      10.23        0.16     0.07   0.511
  S981                      20.00       0.00       0.00       7.79       0.96      11.20      12.17        0.10     0.08   0.608
  S982                      20.00       0.00       0.00       4.46       8.96       6.54      15.50        0.27     0.21   0.775
  S983                      20.00       0.00       0.00       8.94       1.89       8.45      10.34        0.14     0.06   0.517
  S984                      20.00       0.00       0.00       7.36       4.43       8.14      12.57        0.13     0.07   0.629
  S985                      20.00       0.00       0.00       8.74       0.44      10.80      11.24        0.01     0.01   0.562
  S986                      20.00       0.00       0.00       7.70       1.89      10.31      12.20        0.05     0.03   0.610
  S987                      20.00       0.00       0.00       6.95       4.43       8.56      12.99        0.09     0.06   0.649
  S988                      20.00       0.00       0.00       9.07       2.81       4.71       7.52        0.13     0.05   0.376
  S989                      20.00       0.00       0.00       9.25       0.96       9.59      10.55        0.11     0.06   0.527
  S990                      20.00       0.00       0.00       4.01       8.98       7.00      15.98        0.06     0.05   0.799
  S991                      20.00       0.00       0.00       8.57       2.82       7.01       9.83        0.01     0.01   0.492
  S992                      20.00       0.00       0.00       1.08      16.49       2.26      18.75        0.37     0.27   0.938
  S993                      20.00       0.00       0.00       7.46       1.89      10.55      12.44        0.02     0.02   0.622
  S994                      20.00       0.00       0.00       6.19       5.94       7.81      13.75        0.05     0.03   0.688
  S995                      20.00       0.00       0.00       8.54       1.89       9.46      11.35        0.12     0.07   0.568
  S996                      20.00       0.00       0.00       8.26       0.96      10.73      11.70        0.22     0.16   0.585
  S997                      20.00       0.00       0.00       8.91       1.89       8.56      10.44        0.12     0.06   0.522
  S998                      20.00       0.00       0.00       2.20      12.91       4.84      17.75        0.01     0.01   0.887
  S999                      20.00       0.00       0.00       5.85       5.94       8.15      14.10        0.09     0.07   0.705
  S1000                     20.00       0.00       0.00       8.79       1.89       9.02      10.90        0.07     0.04   0.545
  S1001                     20.00       0.00       0.00       1.05      16.52       2.30      18.81        0.05     0.04   0.941
  

  Analysis begun on:  Tue May 23 12:22:25 2023
  Analysis ended on:  Tue May 23 12:22:26 2023
  Total elapsed time: 00:00:01