
  OWA STORM WATER MANAGEMENT MODEL - VERSION v5.2.3 (OWA 2023-03-28)
  ------------------------------------------------------------

  WARNING 01: wet weather time step reduced to recording interval for Rain Gage Raingage2
  
  ****************
  Analysis Options
  ****************
  Flow Units ............... CMS
  Process Models:
    Rainfall/Runoff ........ YES
    RDII ................... NO
    Snowmelt ............... NO
    Groundwater ............ NO
    Flow Routing ........... NO
    Water Quality .......... NO
  Infiltration Method ...... MODIFIED_GREEN_AMPT
  Starting Date ............ 06/17/2022 00:00:00
  Ending Date .............. 06/17/2022 12:00:00
  Antecedent Dry Days ...... 0.0
  Report Time Step ......... 00:15:00
  Wet Time Step ............ 00:01:00
  Dry Time Step ............ 01:00:00
  
  
  **************************        Volume         Depth
  Runoff Quantity Continuity     hectare-m            mm
  **************************     ---------       -------
  Total Precipitation ......        38.607        38.333
  Evaporation Loss .........         0.000         0.000
  Infiltration Loss ........         7.645         7.591
  Surface Runoff ...........        30.038        29.826
  Final Storage ............         0.966         0.960
  Continuity Error (%) .....        -0.112
  
  
  **************************        Volume        Volume
  Flow Routing Continuity        hectare-m      10^6 ltr
  **************************     ---------     ---------
  Dry Weather Inflow .......         0.000         0.000
  Wet Weather Inflow .......        30.038       300.386
  Groundwater Inflow .......         0.000         0.000
  RDII Inflow ..............         0.000         0.000
  External Inflow ..........         0.000         0.000
  External Outflow .........        30.038       300.386
  Flooding Loss ............         0.000         0.000
  Evaporation Loss .........         0.000         0.000
  Exfiltration Loss ........         0.000         0.000
  Initial Stored Volume ....         0.000         0.000
  Final Stored Volume ......         0.000         0.000
  Continuity Error (%) .....         0.000
  
  
  ***************************
  Subcatchment Runoff Summary
  ***************************
  
  ------------------------------------------------------------------------------------------------------------------------------
                            Total      Total      Total      Total     Imperv       Perv      Total       Total     Peak  Runoff
                           Precip      Runon       Evap      Infil     Runoff     Runoff     Runoff      Runoff   Runoff   Coeff
  Subcatchment                 mm         mm         mm         mm         mm         mm         mm    10^6 ltr      CMS
  ------------------------------------------------------------------------------------------------------------------------------
  S1                        38.33       0.00       0.00       6.43       7.62      24.27      31.88        0.16     0.13   0.832
  S2                        38.33       0.00       0.00       4.83      17.24      16.26      33.50        0.53     0.40   0.874
  S3                        38.33       0.00       0.00       8.07       1.90      28.33      30.24        0.24     0.20   0.789
  S4                        38.33       0.00       0.00       8.88       5.58      21.79      27.37        0.16     0.11   0.714
  S5                        38.33       0.00       0.00       7.71       8.59      21.91      30.50        0.44     0.29   0.796
  S6                        38.33       0.00       0.00       9.16       3.73      24.76      28.49        0.21     0.12   0.743
  S7                        38.33       0.00       0.00       9.63       1.90      26.21      28.11        0.33     0.18   0.733
  S8                        38.33       0.00       0.00       9.05       5.57      21.17      26.74        0.32     0.19   0.698
  S9                        38.33       0.00       0.00       4.64      17.25      16.46      33.70        0.31     0.24   0.879
  S10                       38.33       0.00       0.00       4.52      17.25      16.58      33.83        0.63     0.50   0.883
  S11                       38.33       0.00       0.00       7.04      11.46      19.55      31.01        0.35     0.22   0.809
  S12                       38.33       0.00       0.00       7.26       1.91      29.16      31.07        0.05     0.04   0.811
  S13                       38.33       0.00       0.00       8.98       3.73      25.35      29.07        0.47     0.29   0.758
  S14                       38.33       0.00       0.00      10.66       0.87      24.30      25.17        0.47     0.14   0.657
  S15                       38.33       0.00       0.00       4.84      17.24      16.26      33.50        0.53     0.40   0.874
  S16                       38.33       0.00       0.00       6.45      11.47      20.40      31.87        0.42     0.31   0.831
  S17                       38.33       0.00       0.00       8.76       5.58      22.26      27.84        0.09     0.07   0.726
  S18                       38.33       0.00       0.00       9.76       1.90      25.77      27.67        0.49     0.24   0.722
  S19                       38.33       0.00       0.00       7.93       8.58      21.16      29.74        0.35     0.20   0.776
  S20                       38.33       0.00       0.00       4.46      17.26      16.64      33.89        0.18     0.14   0.884
  S21                       38.33       0.00       0.00       9.28       3.72      24.36      28.08        0.30     0.15   0.733
  S22                       38.33       0.00       0.00       9.49       3.72      23.63      27.35        0.54     0.24   0.713
  S23                       38.33       0.00       0.00       7.94       8.58      21.12      29.70        0.37     0.21   0.775
  S24                       38.33       0.00       0.00       2.29      24.90      11.18      36.08        0.21     0.16   0.941
  S25                       38.33       0.00       0.00       5.94       8.61      23.80      32.41        0.01     0.01   0.845
  S26                       38.33       0.00       0.00       5.80      11.50      21.06      32.55        0.06     0.04   0.849
  S27                       38.33       0.00       0.00       6.67      11.47      20.17      31.64        0.61     0.43   0.825
  S28                       38.33       0.00       0.00       9.13       5.57      20.89      26.46        0.14     0.08   0.690
  S29                       38.33       0.00       0.00       9.63       1.90      26.20      28.09        0.34     0.19   0.733
  S30                       38.33       0.00       0.00       4.64      17.25      16.45      33.70        0.62     0.48   0.879
  S31                       38.33       0.00       0.00       3.89      17.32      17.23      34.55        0.02     0.02   0.901
  S32                       38.33       0.00       0.00       8.93       3.73      25.52      29.25        0.29     0.19   0.763
  S33                       38.33       0.00       0.00       4.55      17.25      16.55      33.80        0.23     0.18   0.882
  S34                       38.33       0.00       0.00       8.94       3.73      25.49      29.21        0.40     0.26   0.762
  S35                       38.33       0.00       0.00       2.35      24.86      11.10      35.96        0.68     0.52   0.938
  S36                       38.33       0.00       0.00       8.02       8.57      20.85      29.42        0.22     0.12   0.768
  S37                       38.33       0.00       0.00       9.56       5.57      19.21      24.77        0.28     0.11   0.646
  S38                       38.33       0.00       0.00       9.44       5.57      19.68      25.25        0.20     0.09   0.659
  S39                       38.33       0.00       0.00      10.63       0.87      24.43      25.30        0.43     0.14   0.660
  S40                       38.33       0.00       0.00       4.38      17.26      16.73      33.99        0.38     0.30   0.887
  S41                       38.33       0.00       0.00       9.52       3.72      23.52      27.24        0.27     0.12   0.711
  S42                       38.33       0.00       0.00       2.35      24.86      11.11      35.97        0.61     0.47   0.938
  S43                       38.33       0.00       0.00       5.27      17.23      15.82      33.05        0.65     0.46   0.862
  S44                       38.33       0.00       0.00       9.14       5.57      20.85      26.42        0.44     0.24   0.689
  S45                       38.33       0.00       0.00       6.36      11.48      20.48      31.96        0.36     0.27   0.834
  S46                       38.33       0.00       0.00       9.35       5.57      20.02      25.59        0.30     0.14   0.668
  S47                       38.33       0.00       0.00       7.77       8.58      21.70      30.28        0.57     0.36   0.790
  S48                       38.33       0.00       0.00       8.56       1.90      27.84      29.75        0.49     0.38   0.776
  S49                       38.33       0.00       0.00       4.64      17.25      16.46      33.71        0.60     0.47   0.879
  S50                       38.33       0.00       0.00       8.08       8.57      20.67      29.24        0.57     0.30   0.763
  S51                       38.33       0.00       0.00       2.33      24.87      11.13      36.00        0.45     0.35   0.939
  S52                       38.33       0.00       0.00       7.87       3.73      26.65      30.38        0.09     0.07   0.793
  S53                       38.33       0.00       0.00      10.00       0.87      26.68      27.55        0.09     0.05   0.719
  S54                       38.33       0.00       0.00       5.84      11.49      21.01      32.50        0.18     0.15   0.848
  S55                       38.33       0.00       0.00       8.46       1.90      27.94      29.84        0.43     0.34   0.778
  S56                       38.33       0.00       0.00       8.64       5.58      22.69      28.27        0.01     0.01   0.737
  S57                       38.33       0.00       0.00       9.01       3.73      25.25      28.97        0.52     0.32   0.756
  S58                       38.33       0.00       0.00       7.78       8.58      21.67      30.25        0.20     0.13   0.789
  S59                       38.33       0.00       0.00       8.63       3.73      25.88      29.61        0.03     0.02   0.772
  S60                       38.33       0.00       0.00      10.13       0.87      26.21      27.08        0.14     0.06   0.706
  S61                       38.33       0.00       0.00       9.34       5.57      20.05      25.62        0.29     0.14   0.668
  S62                       38.33       0.00       0.00       9.02       5.57      21.30      26.87        0.09     0.06   0.701
  S63                       38.33       0.00       0.00       6.07       8.61      23.66      32.27        0.01     0.01   0.842
  S64                       38.33       0.00       0.00       9.01       3.73      25.27      29.00        0.50     0.31   0.756
  S65                       38.33       0.00       0.00       8.77       0.87      28.69      29.56        0.01     0.01   0.771
  S66                       38.33       0.00       0.00       8.67       3.73      25.84      29.57        0.07     0.05   0.771
  S67                       38.33       0.00       0.00       6.87      11.46      19.98      31.44        0.42     0.29   0.820
  S68                       38.33       0.00       0.00       7.34       3.74      27.19      30.93        0.03     0.03   0.807
  S69                       38.33       0.00       0.00       4.86      17.24      16.23      33.47        0.57     0.43   0.873
  S70                       38.33       0.00       0.00       2.34      24.86      11.12      35.98        0.55     0.42   0.939
  S71                       38.33       0.00       0.00       9.41       5.57      19.78      25.35        0.18     0.08   0.661
  S72                       38.33       0.00       0.00       4.08      17.29      17.03      34.32        0.07     0.06   0.895
  S73                       38.33       0.00       0.00       7.85       1.91      28.55      30.46        0.16     0.14   0.795
  S74                       38.33       0.00       0.00       1.07      31.90       5.37      37.27        0.14     0.10   0.972
  S75                       38.33       0.00       0.00       4.36      17.26      16.74      34.00        0.24     0.19   0.887
  S76                       38.33       0.00       0.00       1.09      31.84       5.32      37.16        0.72     0.54   0.969
  S77                       38.33       0.00       0.00       8.95       5.58      21.57      27.14        0.07     0.04   0.708
  S78                       38.33       0.00       0.00       9.38       5.57      19.90      25.47        0.17     0.08   0.665
  S79                       38.33       0.00       0.00       4.17      17.28      16.93      34.22        0.17     0.13   0.893
  S80                       38.33       0.00       0.00       9.26       5.57      20.38      25.95        0.22     0.11   0.677
  S81                       38.33       0.00       0.00       9.14       3.73      24.82      28.55        0.09     0.05   0.745
  S82                       38.33       0.00       0.00       7.78       8.58      21.69      30.27        0.20     0.12   0.790
  S83                       38.33       0.00       0.00       2.34      24.87      11.12      35.98        0.53     0.40   0.939
  S84                       38.33       0.00       0.00       4.48      17.26      16.62      33.87        0.19     0.15   0.884
  S85                       38.33       0.00       0.00       1.08      31.87       5.35      37.22        0.29     0.22   0.971
  S86                       38.33       0.00       0.00       8.81       1.90      27.58      29.48        0.08     0.06   0.769
  S87                       38.33       0.00       0.00       6.64      11.47      20.20      31.67        0.58     0.41   0.826
  S88                       38.33       0.00       0.00       8.61       1.90      27.79      29.69        0.53     0.40   0.774
  S89                       38.33       0.00       0.00       8.31       8.56      19.84      28.40        0.54     0.25   0.741
  S90                       38.33       0.00       0.00       9.33       3.72      24.17      27.90        0.35     0.17   0.728
  S91                       38.33       0.00       0.00       9.06       3.73      25.09      28.81        0.46     0.27   0.752
  S92                       38.33       0.00       0.00       9.57       1.90      26.40      28.30        0.28     0.16   0.738
  S93                       38.33       0.00       0.00       1.05      31.95       5.39      37.34        0.05     0.04   0.974
  S94                       38.33       0.00       0.00       9.68       1.90      26.04      27.94        0.39     0.21   0.729
  S95                       38.33       0.00       0.00       9.03       3.73      25.19      28.91        0.55     0.33   0.754
  S96                       38.33       0.00       0.00       8.81       3.73      25.70      29.43        0.31     0.21   0.768
  S97                       38.33       0.00       0.00       8.27       1.90      28.13      30.03        0.33     0.26   0.784
  S98                       38.33       0.00       0.00       4.67      17.24      16.43      33.67        0.66     0.51   0.878
  S99                       38.33       0.00       0.00       2.35      24.86      11.11      35.97        0.60     0.46   0.938
  S100                      38.33       0.00       0.00       4.62      17.25      16.48      33.72        0.58     0.45   0.880
  S101                      38.33       0.00       0.00       7.87       8.58      21.37      29.95        0.28     0.17   0.781
  S102                      38.33       0.00       0.00       8.25       8.57      20.06      28.63        0.45     0.21   0.747
  S103                      38.33       0.00       0.00       8.66       1.90      27.74      29.64        0.57     0.43   0.773
  S104                      38.33       0.00       0.00       9.10       3.73      24.95      28.68        0.52     0.30   0.748
  S105                      38.33       0.00       0.00       9.44       3.72      23.80      27.53        0.47     0.22   0.718
  S106                      38.33       0.00       0.00      10.21       0.87      25.95      26.82        0.16     0.07   0.700
  S107                      38.33       0.00       0.00       5.00      17.23      16.09      33.32        0.37     0.27   0.869
  S108                      38.33       0.00       0.00       9.34       5.57      20.07      25.64        0.28     0.13   0.669
  S109                      38.33       0.00       0.00       9.42       5.57      19.76      25.33        0.36     0.16   0.661
  S110                      38.33       0.00       0.00       9.09       3.73      24.98      28.71        0.51     0.29   0.749
  S111                      38.33       0.00       0.00       8.17       8.57      20.35      28.92        0.35     0.17   0.754
  S112                      38.33       0.00       0.00       6.47      11.47      20.37      31.85        0.44     0.32   0.831
  S113                      38.33       0.00       0.00       9.47       5.57      19.57      25.14        0.21     0.09   0.656
  S114                      38.33       0.00       0.00       9.53       1.90      26.53      28.43        0.25     0.15   0.742
  S115                      38.33       0.00       0.00       2.34      24.86      11.12      35.98        0.54     0.41   0.939
  S116                      38.33       0.00       0.00      10.01       0.87      26.64      27.51        0.10     0.05   0.718
  S117                      38.33       0.00       0.00       8.31       8.56      19.84      28.41        0.53     0.25   0.741
  S118                      38.33       0.00       0.00       8.23       1.90      28.17      30.07        0.31     0.25   0.784
  S119                      38.33       0.00       0.00       1.06      31.90       5.37      37.27        0.13     0.10   0.972
  S120                      38.33       0.00       0.00       9.17       5.57      20.74      26.32        0.16     0.09   0.686
  S121                      38.33       0.00       0.00       8.92       3.73      25.56      29.29        0.09     0.06   0.764
  S122                      38.33       0.00       0.00       7.74       8.59      21.81      30.40        0.17     0.11   0.793
  S123                      38.33       0.00       0.00       7.70       8.59      21.96      30.54        0.42     0.27   0.797
  S124                      38.33       0.00       0.00       6.90       3.74      27.63      31.38        0.01     0.01   0.818
  S125                      38.33       0.00       0.00       8.48       1.90      27.92      29.82        0.45     0.35   0.778
  S126                      38.33       0.00       0.00       4.32      17.27      16.78      34.05        0.32     0.25   0.888
  S127                      38.33       0.00       0.00       9.72       1.90      25.90      27.80        0.44     0.23   0.725
  S128                      38.33       0.00       0.00       8.21       8.57      20.18      28.75        0.41     0.20   0.750
  S129                      38.33       0.00       0.00       7.84       1.91      28.56      30.47        0.16     0.14   0.795
  S130                      38.33       0.00       0.00      10.08       0.87      26.39      27.26        0.12     0.06   0.711
  S131                      38.33       0.00       0.00       9.30       3.72      24.29      28.01        0.32     0.16   0.731
  S132                      38.33       0.00       0.00      10.26       0.87      25.76      26.63        0.19     0.08   0.695
  S133                      38.33       0.00       0.00       9.50       5.57      19.44      25.01        0.46     0.20   0.652
  S134                      38.33       0.00       0.00       9.34       5.57      20.06      25.63        0.29     0.14   0.669
  S135                      38.33       0.00       0.00       9.04       5.57      21.22      26.79        0.31     0.18   0.699
  S136                      38.33       0.00       0.00       8.56       5.58      22.98      28.56        0.03     0.03   0.745
  S137                      38.33       0.00       0.00       6.09      11.48      20.76      32.24        0.21     0.16   0.841
  S138                      38.33       0.00       0.00       9.64       1.90      26.18      28.08        0.35     0.19   0.732
  S139                      38.33       0.00       0.00       2.32      24.88      11.14      36.01        0.40     0.30   0.939
  S140                      38.33       0.00       0.00      10.69       0.87      24.20      25.07        0.49     0.15   0.654
  S141                      38.33       0.00       0.00       9.57       1.90      26.40      28.30        0.28     0.16   0.738
  S142                      38.33       0.00       0.00       6.68      11.47      20.17      31.63        0.62     0.44   0.825
  S143                      38.33       0.00       0.00       9.33       5.57      20.12      25.69        0.27     0.13   0.670
  S144                      38.33       0.00       0.00       9.47       5.57      19.57      25.14        0.42     0.18   0.656
  S145                      38.33       0.00       0.00       7.76       1.91      28.65      30.56        0.14     0.12   0.797
  S146                      38.33       0.00       0.00       9.05       5.57      21.17      26.74        0.11     0.06   0.698
  S147                      38.33       0.00       0.00       7.75       8.58      21.77      30.35        0.35     0.22   0.792
  S148                      38.33       0.00       0.00       9.10       5.57      20.99      26.56        0.38     0.22   0.693
  S149                      38.33       0.00       0.00       6.70       8.61      23.02      31.63        0.05     0.04   0.825
  S150                      38.33       0.00       0.00       7.60       8.59      22.12      30.71        0.05     0.04   0.801
  S151                      38.33       0.00       0.00       7.75       8.58      21.77      30.35        0.18     0.11   0.792
  S152                      38.33       0.00       0.00       8.41       3.73      26.11      29.84        0.14     0.10   0.778
  S153                      38.33       0.00       0.00       9.20       5.57      20.61      26.18        0.18     0.09   0.683
  S154                      38.33       0.00       0.00       6.02      11.49      20.83      32.31        0.27     0.21   0.843
  S155                      38.33       0.00       0.00       5.60      11.50      21.25      32.76        0.10     0.08   0.855
  S156                      38.33       0.00       0.00       6.91      11.46      19.93      31.40        0.45     0.30   0.819
  S157                      38.33       0.00       0.00      10.38       0.87      25.32      26.19        0.25     0.10   0.683
  S158                      38.33       0.00       0.00       9.35       3.72      24.09      27.82        0.38     0.18   0.726
  S159                      38.33       0.00       0.00       9.20       5.57      20.60      26.17        0.18     0.10   0.683
  S160                      38.33       0.00       0.00       8.26       1.90      28.14      30.05        0.32     0.26   0.784
  S161                      38.33       0.00       0.00       7.17       8.60      22.55      31.15        0.18     0.13   0.813
  S162                      38.33       0.00       0.00       9.47       5.57      19.55      25.12        0.22     0.09   0.655
  S163                      38.33       0.00       0.00       9.74       3.72      22.70      26.42        0.47     0.18   0.689
  S164                      38.33       0.00       0.00       9.51       5.57      19.39      24.96        0.48     0.20   0.651
  S165                      38.33       0.00       0.00       8.39       1.90      28.01      29.91        0.39     0.31   0.780
  S166                      38.33       0.00       0.00       9.44       5.57      19.68      25.25        0.20     0.09   0.659
  S167                      38.33       0.00       0.00       7.84       3.73      26.68      30.41        0.02     0.02   0.793
  S168                      38.33       0.00       0.00       8.55       3.73      25.97      29.70        0.23     0.16   0.775
  S169                      38.33       0.00       0.00       8.10       8.57      20.60      29.17        0.28     0.14   0.761
  S170                      38.33       0.00       0.00       7.18       3.74      27.35      31.09        0.01     0.01   0.811
  S171                      38.33       0.00       0.00       7.70       8.59      21.94      30.53        0.28     0.19   0.796
  S172                      38.33       0.00       0.00       8.67       5.58      22.58      28.16        0.02     0.02   0.735
  S173                      38.33       0.00       0.00       9.31       5.57      20.19      25.77        0.26     0.12   0.672
  S174                      38.33       0.00       0.00       1.07      31.88       5.35      37.24        0.22     0.17   0.971
  S175                      38.33       0.00       0.00       6.28      11.48      20.57      32.05        0.31     0.23   0.836
  S176                      38.33       0.00       0.00       4.37      17.26      16.73      34.00        0.06     0.05   0.887
  S177                      38.33       0.00       0.00       8.04       3.73      26.48      30.21        0.11     0.09   0.788
  S178                      38.33       0.00       0.00       7.30       8.60      22.42      31.02        0.07     0.05   0.809
  S179                      38.33       0.00       0.00      10.57       0.87      24.64      25.51        0.38     0.13   0.665
  S180                      38.33       0.00       0.00       9.63       1.90      26.20      28.09        0.34     0.19   0.733
  S181                      38.33       0.00       0.00       8.36       1.90      28.04      29.94        0.37     0.29   0.781
  S182                      38.33       0.00       0.00       8.53       1.90      27.87      29.77        0.48     0.37   0.777
  S183                      38.33       0.00       0.00       8.18       3.73      26.34      30.07        0.11     0.08   0.784
  S184                      38.33       0.00       0.00       2.32      24.88      11.15      36.02        0.36     0.27   0.940
  S185                      38.33       0.00       0.00       6.94      11.46      19.87      31.33        0.49     0.33   0.817
  S186                      38.33       0.00       0.00       9.51       5.57      19.40      24.97        0.47     0.20   0.651
  S187                      38.33       0.00       0.00       7.89       3.73      26.63      30.36        0.09     0.07   0.792
  S188                      38.33       0.00       0.00       8.78       3.73      25.73      29.46        0.04     0.02   0.769
  S189                      38.33       0.00       0.00       9.16       3.73      24.76      28.48        0.10     0.05   0.743
  S190                      38.33       0.00       0.00       8.28       1.90      28.12      30.02        0.33     0.27   0.783
  S191                      38.33       0.00       0.00       8.39       3.73      26.12      29.85        0.05     0.03   0.779
  S192                      38.33       0.00       0.00       9.34       5.57      20.05      25.62        0.29     0.14   0.668
  S193                      38.33       0.00       0.00       7.59       1.91      28.82      30.73        0.10     0.08   0.802
  S194                      38.33       0.00       0.00      10.55       0.87      24.69      25.56        0.37     0.12   0.667
  S195                      38.33       0.00       0.00       9.48       3.72      23.63      27.36        0.54     0.24   0.714
  S196                      38.33       0.00       0.00       8.12       3.73      26.39      30.12        0.13     0.10   0.786
  S197                      38.33       0.00       0.00       4.61      17.25      16.49      33.74        0.55     0.43   0.880
  S198                      38.33       0.00       0.00       9.62       5.57      18.95      24.52        0.33     0.13   0.640
  S199                      38.33       0.00       0.00       9.44       5.57      19.68      25.25        0.39     0.17   0.659
  S200                      38.33       0.00       0.00       9.33       3.72      24.18      27.91        0.35     0.17   0.728
  S201                      38.33       0.00       0.00       9.79       1.90      25.65      27.54        0.54     0.26   0.719
  S202                      38.33       0.00       0.00       8.02       8.57      20.85      29.42        0.48     0.26   0.768
  S203                      38.33       0.00       0.00       7.04      11.46      19.55      31.00        0.35     0.22   0.809
  S204                      38.33       0.00       0.00       2.32      24.88      11.14      36.02        0.38     0.29   0.940
  S205                      38.33       0.00       0.00       9.20       5.57      20.60      26.17        0.18     0.10   0.683
  S206                      38.33       0.00       0.00       8.51       1.90      27.89      29.79        0.46     0.36   0.777
  S207                      38.33       0.00       0.00       9.42       1.90      26.90      28.80        0.17     0.11   0.751
  S208                      38.33       0.00       0.00       9.71       1.90      25.92      27.82        0.43     0.22   0.726
  S209                      38.33       0.00       0.00       1.06      31.91       5.37      37.28        0.12     0.09   0.972
  S210                      38.33       0.00       0.00       8.84       1.90      27.55      29.45        0.08     0.06   0.768
  S211                      38.33       0.00       0.00       1.09      31.85       5.33      37.18        0.48     0.36   0.970
  S212                      38.33       0.00       0.00       8.88       5.58      21.82      27.40        0.16     0.11   0.715
  S213                      38.33       0.00       0.00       8.63       3.73      25.88      29.61        0.25     0.18   0.772
  S214                      38.33       0.00       0.00       8.61       5.58      22.79      28.37        0.04     0.03   0.740
  S215                      38.33       0.00       0.00       2.30      24.89      11.17      36.06        0.24     0.18   0.941
  S216                      38.33       0.00       0.00       2.34      24.87      11.12      35.99        0.49     0.38   0.939
  S217                      38.33       0.00       0.00       9.13       3.73      24.86      28.59        0.19     0.11   0.746
  S218                      38.33       0.00       0.00       7.55       8.59      22.17      30.76        0.05     0.03   0.802
  S219                      38.33       0.00       0.00       8.98       3.73      25.36      29.09        0.12     0.07   0.759
  S220                      38.33       0.00       0.00       7.00      11.46      19.67      31.13        0.30     0.19   0.812
  S221                      38.33       0.00       0.00       4.28      17.27      16.82      34.10        0.18     0.14   0.889
  S222                      38.33       0.00       0.00       6.04      11.49      20.81      32.29        0.29     0.22   0.842
  S223                      38.33       0.00       0.00       9.70       1.90      25.98      27.88        0.41     0.21   0.727
  S224                      38.33       0.00       0.00       4.91      17.24      16.19      33.42        0.64     0.48   0.872
  S225                      38.33       0.00       0.00       8.96       3.73      25.41      29.14        0.43     0.27   0.760
  S226                      38.33       0.00       0.00       9.51       5.57      19.39      24.96        0.48     0.20   0.651
  S227                      38.33       0.00       0.00      10.10       0.87      26.31      27.18        0.13     0.06   0.709
  S228                      38.33       0.00       0.00       7.10       8.60      22.63      31.22        0.02     0.02   0.815
  S229                      38.33       0.00       0.00       7.87       8.58      21.38      29.96        0.55     0.32   0.782
  S230                      38.33       0.00       0.00       9.28       5.57      20.32      25.89        0.23     0.12   0.675
  S231                      38.33       0.00       0.00       7.05       8.60      22.67      31.27        0.10     0.07   0.816
  S232                      38.33       0.00       0.00       6.74      11.47      20.11      31.57        0.16     0.11   0.824
  S233                      38.33       0.00       0.00       8.52       1.90      27.88      29.78        0.47     0.36   0.777
  S234                      38.33       0.00       0.00       9.09       3.73      24.97      28.70        0.17     0.10   0.749
  S235                      38.33       0.00       0.00       6.44      11.47      20.41      31.88        0.41     0.30   0.832
  S236                      38.33       0.00       0.00       6.40       8.61      23.33      31.94        0.03     0.02   0.833
  S237                      38.33       0.00       0.00       4.04      17.30      17.07      34.37        0.09     0.07   0.897
  S238                      38.33       0.00       0.00       8.33       3.73      26.18      29.91        0.17     0.13   0.780
  S239                      38.33       0.00       0.00       7.50       8.59      22.22      30.81        0.20     0.14   0.804
  S240                      38.33       0.00       0.00       2.32      24.88      11.15      36.02        0.36     0.27   0.940
  S241                      38.33       0.00       0.00       4.35      17.27      16.75      34.02        0.23     0.18   0.887
  S242                      38.33       0.00       0.00       9.24       3.73      24.49      28.22        0.27     0.14   0.736
  S243                      38.33       0.00       0.00       9.22       3.73      24.54      28.26        0.26     0.14   0.737
  S244                      38.33       0.00       0.00       9.65       1.90      26.13      28.02        0.36     0.20   0.731
  S245                      38.33       0.00       0.00       9.68       1.90      26.05      27.95        0.39     0.21   0.729
  S246                      38.33       0.00       0.00       1.09      31.84       5.32      37.16        0.69     0.52   0.969
  S247                      38.33       0.00       0.00       6.54      11.47      20.30      31.78        0.49     0.36   0.829
  S248                      38.33       0.00       0.00       9.15       5.57      20.78      26.36        0.46     0.25   0.688
  S249                      38.33       0.00       0.00       8.72       3.73      25.79      29.52        0.28     0.19   0.770
  S250                      38.33       0.00       0.00       9.32       3.72      24.20      27.92        0.34     0.17   0.728
  S251                      38.33       0.00       0.00       9.28       5.57      20.31      25.88        0.12     0.06   0.675
  S252                      38.33       0.00       0.00       9.43       1.90      26.87      28.77        0.18     0.11   0.751
  S253                      38.33       0.00       0.00       7.10      11.45      19.32      30.78        0.46     0.28   0.803
  S254                      38.33       0.00       0.00       7.80       1.91      28.61      30.51        0.15     0.13   0.796
  S255                      38.33       0.00       0.00       4.24      17.28      16.87      34.14        0.08     0.06   0.891
  S256                      38.33       0.00       0.00       8.43       1.90      27.97      29.87        0.05     0.04   0.779
  S257                      38.33       0.00       0.00       9.74       5.57      18.47      24.03        0.45     0.17   0.627
  S258                      38.33       0.00       0.00       8.05       1.90      28.36      30.26        0.23     0.19   0.789
  S259                      38.33       0.00       0.00       5.66      11.50      21.19      32.69        0.04     0.03   0.853
  S260                      38.33       0.00       0.00       8.87       5.58      21.85      27.43        0.15     0.10   0.715
  S261                      38.33       0.00       0.00       5.11      17.23      15.98      33.21        0.46     0.34   0.866
  S262                      38.33       0.00       0.00       6.86      11.46      19.98      31.44        0.19     0.13   0.820
  S263                      38.33       0.00       0.00       6.82       1.92      29.62      31.54        0.01     0.01   0.823
  S264                      38.33       0.00       0.00       1.09      31.84       5.32      37.16        0.71     0.53   0.969
  S265                      38.33       0.00       0.00       8.19       3.73      26.33      30.06        0.04     0.03   0.784
  S266                      38.33       0.00       0.00       6.13      11.48      20.71      32.20        0.23     0.18   0.840
  S267                      38.33       0.00       0.00       9.10       3.73      24.96      28.68        0.17     0.10   0.748
  S268                      38.33       0.00       0.00       8.96       3.73      25.41      29.14        0.11     0.07   0.760
  S269                      38.33       0.00       0.00       7.20       1.91      29.22      31.13        0.04     0.04   0.812
  S270                      38.33       0.00       0.00       9.48       3.72      23.66      27.38        0.53     0.23   0.714
  S271                      38.33       0.00       0.00       5.19      17.23      15.90      33.13        0.55     0.40   0.864
  S272                      38.33       0.00       0.00       9.68       5.57      18.69      24.26        0.39     0.15   0.633
  S273                      38.33       0.00       0.00       9.35       3.72      24.10      27.82        0.37     0.18   0.726
  S274                      38.33       0.00       0.00       9.71       5.57      18.55      24.12        0.43     0.16   0.629
  S275                      38.33       0.00       0.00       6.53       8.61      23.20      31.80        0.04     0.03   0.830
  S276                      38.33       0.00       0.00       4.57      17.25      16.52      33.77        0.50     0.39   0.881
  S277                      38.33       0.00       0.00       9.52       5.57      19.35      24.92        0.49     0.21   0.650
  S278                      38.33       0.00       0.00       9.12       5.57      20.91      26.48        0.41     0.23   0.691
  S279                      38.33       0.00       0.00       7.95       3.73      26.57      30.30        0.10     0.08   0.790
  S280                      38.33       0.00       0.00       9.65       1.90      26.14      28.04        0.36     0.19   0.732
  S281                      38.33       0.00       0.00       2.26      24.93      11.23      36.16        0.08     0.06   0.943
  S282                      38.33       0.00       0.00       9.24       3.73      24.48      28.20        0.12     0.06   0.736
  S283                      38.33       0.00       0.00       1.09      31.84       5.32      37.16        0.71     0.53   0.969
  S284                      38.33       0.00       0.00       8.86       3.73      25.65      29.38        0.33     0.22   0.766
  S285                      38.33       0.00       0.00       8.09       3.73      26.42      30.16        0.12     0.09   0.787
  S286                      38.33       0.00       0.00       6.95      11.46      19.82      31.28        0.53     0.35   0.816
  S287                      38.33       0.00       0.00       9.61       5.57      19.00      24.57        0.32     0.13   0.641
  S288                      38.33       0.00       0.00       5.63      11.50      21.23      32.73        0.02     0.01   0.854
  S289                      38.33       0.00       0.00       9.15       3.73      24.80      28.53        0.20     0.11   0.744
  S290                      38.33       0.00       0.00       8.59       1.90      27.81      29.71        0.06     0.05   0.775
  S291                      38.33       0.00       0.00       8.58       1.90      27.81      29.72        0.51     0.39   0.775
  S292                      38.33       0.00       0.00       6.38      11.48      20.46      31.94        0.56     0.42   0.833
  S293                      38.33       0.00       0.00       9.51       5.57      19.41      24.98        0.24     0.10   0.652
  S294                      38.33       0.00       0.00       7.74       8.58      21.81      30.39        0.50     0.32   0.793
  S295                      38.33       0.00       0.00       1.09      31.84       5.33      37.17        0.59     0.44   0.970
  S296                      38.33       0.00       0.00       9.25       5.57      20.43      26.01        0.21     0.11   0.678
  S297                      38.33       0.00       0.00       9.13       5.57      20.88      26.45        0.43     0.23   0.690
  S298                      38.33       0.00       0.00       7.93       1.90      28.48      30.38        0.19     0.16   0.793
  S299                      38.33       0.00       0.00       8.14       8.57      20.45      29.02        0.32     0.16   0.757
  S300                      38.33       0.00       0.00       7.08      11.45      19.39      30.84        0.43     0.26   0.805
  S301                      38.33       0.00       0.00       5.38      11.51      21.48      33.00        0.03     0.03   0.861
  S302                      38.33       0.00       0.00       8.99       3.73      25.34      29.07        0.12     0.07   0.758
  S303                      38.33       0.00       0.00       9.79       1.90      25.67      27.57        0.53     0.26   0.719
  S304                      38.33       0.00       0.00       8.96       3.73      25.41      29.14        0.11     0.07   0.760
  S305                      38.33       0.00       0.00       8.44       3.73      26.08      29.81        0.05     0.04   0.778
  S306                      38.33       0.00       0.00       9.40       3.72      23.94      27.66        0.42     0.20   0.722
  S307                      38.33       0.00       0.00       8.99       3.73      25.34      29.07        0.12     0.07   0.758
  S308                      38.33       0.00       0.00       6.89      11.46      19.95      31.42        0.44     0.30   0.820
  S309                      38.33       0.00       0.00       4.13      17.29      16.98      34.26        0.09     0.07   0.894
  S310                      38.33       0.00       0.00       6.40      11.48      20.45      31.92        0.09     0.07   0.833
  S311                      38.33       0.00       0.00       9.35       3.72      24.10      27.82        0.37     0.18   0.726
  S312                      38.33       0.00       0.00       9.01       3.73      25.25      28.97        0.52     0.32   0.756
  S313                      38.33       0.00       0.00       6.52      11.47      20.32      31.79        0.48     0.35   0.829
  S314                      38.33       0.00       0.00       4.53      17.25      16.57      33.82        0.65     0.51   0.882
  S315                      38.33       0.00       0.00       9.23       5.57      20.49      26.06        0.20     0.10   0.680
  S316                      38.33       0.00       0.00       9.75       1.90      25.80      27.70        0.48     0.24   0.723
  S317                      38.33       0.00       0.00       9.59       1.90      26.35      28.25        0.30     0.17   0.737
  S318                      38.33       0.00       0.00       9.77       1.90      25.72      27.62        0.51     0.25   0.720
  S319                      38.33       0.00       0.00       4.76      17.24      16.33      33.57        0.44     0.34   0.876
  S320                      38.33       0.00       0.00       7.42       8.59      22.30      30.89        0.18     0.12   0.806
  S321                      38.33       0.00       0.00       9.00       5.58      21.35      26.93        0.09     0.05   0.702
  S322                      38.33       0.00       0.00       8.87       1.90      27.53      29.43        0.09     0.06   0.768
  S323                      38.33       0.00       0.00       9.37       5.57      19.96      25.53        0.31     0.14   0.666
  S324                      38.33       0.00       0.00       6.96      11.46      19.80      31.26        0.55     0.36   0.815
  S325                      38.33       0.00       0.00       9.45       3.72      23.75      27.48        0.49     0.22   0.717
  S326                      38.33       0.00       0.00       7.67       8.59      22.03      30.62        0.13     0.09   0.799
  S327                      38.33       0.00       0.00       6.17      11.48      20.68      32.16        0.37     0.29   0.839
  S328                      38.33       0.00       0.00       7.95       8.58      21.10      29.67        0.38     0.21   0.774
  S329                      38.33       0.00       0.00       6.24      11.48      20.60      32.08        0.43     0.33   0.837
  S330                      38.33       0.00       0.00       9.47       3.72      23.68      27.40        0.52     0.23   0.715
  S331                      38.33       0.00       0.00       8.46       3.73      26.05      29.78        0.21     0.15   0.777
  S332                      38.33       0.00       0.00       8.32       8.56      19.78      28.34        0.56     0.26   0.739
  S333                      38.33       0.00       0.00       7.05      11.46      19.50      30.96        0.37     0.23   0.808
  S334                      38.33       0.00       0.00       6.13      11.48      20.71      32.20        0.23     0.18   0.840
  S335                      38.33       0.00       0.00       8.02       1.90      28.38      30.28        0.22     0.18   0.790
  S336                      38.33       0.00       0.00       6.33      11.48      20.52      31.99        0.34     0.25   0.835
  S337                      38.33       0.00       0.00       8.78       3.73      25.73      29.46        0.04     0.02   0.769
  S338                      38.33       0.00       0.00       1.09      31.84       5.33      37.17        0.65     0.48   0.970
  S339                      38.33       0.00       0.00       6.66       3.75      27.88      31.63        0.01     0.01   0.825
  S340                      38.33       0.00       0.00       9.39       3.72      23.97      27.70        0.41     0.19   0.723
  S341                      38.33       0.00       0.00       7.70       1.91      28.71      30.62        0.12     0.10   0.799
  S342                      38.33       0.00       0.00       1.08      31.85       5.33      37.18        0.48     0.35   0.970
  S343                      38.33       0.00       0.00       6.47      11.47      20.37      31.85        0.44     0.32   0.831
  S344                      38.33       0.00       0.00       7.09       8.60      22.63      31.23        0.16     0.12   0.815
  S345                      38.33       0.00       0.00       9.17       3.73      24.72      28.44        0.22     0.12   0.742
  S346                      38.33       0.00       0.00       8.88       3.73      25.63      29.36        0.34     0.23   0.766
  S347                      38.33       0.00       0.00       9.49       3.72      23.62      27.34        0.54     0.24   0.713
  S348                      38.33       0.00       0.00       9.60       1.90      26.31      28.21        0.31     0.17   0.736
  S349                      38.33       0.00       0.00      10.61       0.87      24.48      25.35        0.42     0.14   0.661
  S350                      38.33       0.00       0.00       9.05       3.73      25.13      28.86        0.15     0.09   0.753
  S351                      38.33       0.00       0.00       7.16      11.45      19.15      30.60        0.57     0.34   0.798
  S352                      38.33       0.00       0.00       9.61       1.90      26.27      28.17        0.32     0.18   0.735
  S353                      38.33       0.00       0.00       9.51       5.57      19.39      24.96        0.48     0.20   0.651
  S354                      38.33       0.00       0.00       8.59       3.73      25.93      29.66        0.24     0.17   0.774
  S355                      38.33       0.00       0.00       6.93      11.46      19.89      31.35        0.48     0.32   0.818
  S356                      38.33       0.00       0.00       9.35       3.72      24.12      27.84        0.37     0.18   0.726
  S357                      38.33       0.00       0.00       8.94       3.73      25.48      29.21        0.10     0.07   0.762
  S358                      38.33       0.00       0.00       9.77       1.90      25.73      27.62        0.51     0.25   0.721
  S359                      38.33       0.00       0.00       7.52       3.73      27.01      30.74        0.01     0.01   0.802
  S360                      38.33       0.00       0.00       9.46       3.72      23.73      27.45        0.50     0.23   0.716
  S361                      38.33       0.00       0.00       9.43       3.72      23.83      27.55        0.46     0.21   0.719
  S362                      38.33       0.00       0.00       9.69       3.72      22.88      26.60        0.42     0.16   0.694
  S363                      38.33       0.00       0.00       8.97       3.73      25.40      29.13        0.33     0.21   0.760
  S364                      38.33       0.00       0.00      10.48       0.87      24.97      25.84        0.31     0.11   0.674
  S365                      38.33       0.00       0.00       9.32       3.72      24.21      27.93        0.34     0.17   0.729
  S366                      38.33       0.00       0.00      10.55       0.87      24.72      25.58        0.37     0.12   0.667
  S367                      38.33       0.00       0.00       9.17       3.73      24.72      28.44        0.22     0.12   0.742
  S368                      38.33       0.00       0.00      10.38       0.87      25.33      26.20        0.25     0.09   0.684
  S369                      38.33       0.00       0.00       2.34      24.86      11.12      35.98        0.55     0.43   0.939
  S370                      38.33       0.00       0.00       4.64      17.25      16.45      33.70        0.62     0.48   0.879
  S371                      38.33       0.00       0.00       5.58      11.51      21.28      32.78        0.09     0.07   0.855
  S372                      38.33       0.00       0.00       9.26       3.72      24.42      28.15        0.28     0.15   0.734
  S373                      38.33       0.00       0.00       1.09      31.84       5.32      37.16        0.68     0.51   0.969
  S374                      38.33       0.00       0.00       3.98      17.31      17.14      34.44        0.06     0.05   0.899
  S375                      38.33       0.00       0.00       5.86      11.49      20.99      32.49        0.13     0.10   0.847
  S376                      38.33       0.00       0.00       2.36      24.86      11.10      35.95        0.72     0.55   0.938
  S377                      38.33       0.00       0.00       9.09       3.73      24.99      28.72        0.17     0.10   0.749
  S378                      38.33       0.00       0.00       9.02       3.73      25.22      28.95        0.53     0.32   0.755
  S379                      38.33       0.00       0.00       9.20       5.57      20.61      26.18        0.18     0.09   0.683
  S380                      38.33       0.00       0.00       7.21       8.60      22.51      31.11        0.19     0.14   0.811
  S381                      38.33       0.00       0.00       9.28       3.72      24.33      28.05        0.31     0.16   0.732
  S382                      38.33       0.00       0.00       8.06       8.57      20.71      29.28        0.55     0.29   0.764
  S383                      38.33       0.00       0.00       8.33       5.59      23.78      29.37        0.01     0.01   0.766
  S384                      38.33       0.00       0.00       6.64      11.47      20.20      31.67        0.30     0.21   0.826
  S385                      38.33       0.00       0.00       7.20       1.91      29.22      31.13        0.04     0.04   0.812
  S386                      38.33       0.00       0.00       4.92      17.23      16.18      33.41        0.30     0.22   0.872
  S387                      38.33       0.00       0.00       7.97       3.73      26.55      30.28        0.10     0.08   0.790
  S388                      38.33       0.00       0.00       7.89       3.73      26.63      30.36        0.09     0.07   0.792
  S389                      38.33       0.00       0.00       9.78       1.90      25.71      27.61        0.51     0.25   0.720
  S390                      38.33       0.00       0.00       4.67      17.24      16.43      33.67        0.15     0.12   0.878
  S391                      38.33       0.00       0.00      10.67       0.87      24.26      25.13        0.48     0.15   0.655
  S392                      38.33       0.00       0.00       8.96       5.58      21.52      27.09        0.04     0.02   0.707
  S393                      38.33       0.00       0.00       9.36       3.72      24.06      27.78        0.39     0.19   0.725
  S394                      38.33       0.00       0.00       5.15      17.23      15.95      33.17        0.50     0.36   0.865
  S395                      38.33       0.00       0.00       1.06      31.91       5.37      37.28        0.12     0.09   0.973
  S396                      38.33       0.00       0.00       6.86       8.60      22.87      31.47        0.11     0.08   0.821
  S397                      38.33       0.00       0.00       9.60       5.57      19.02      24.59        0.31     0.13   0.642
  S398                      38.33       0.00       0.00       5.96      11.49      20.89      32.38        0.24     0.19   0.845
  S399                      38.33       0.00       0.00       8.98       5.58      21.44      27.01        0.08     0.05   0.705
  S400                      38.33       0.00       0.00       9.12       3.73      24.89      28.62        0.19     0.11   0.747
  S401                      38.33       0.00       0.00       7.03      11.46      19.56      31.02        0.34     0.22   0.809
  S402                      38.33       0.00       0.00       9.69       1.90      25.99      27.89        0.41     0.21   0.727
  S403                      38.33       0.00       0.00       4.68      17.24      16.41      33.66        0.35     0.27   0.878
  S404                      38.33       0.00       0.00       7.78       8.58      21.68      30.26        0.39     0.24   0.789
  S405                      38.33       0.00       0.00       4.41      17.26      16.69      33.95        0.29     0.23   0.886
  S406                      38.33       0.00       0.00       9.01       3.73      25.26      28.98        0.51     0.31   0.756
  S407                      38.33       0.00       0.00       9.74       5.57      18.43      23.99        0.47     0.17   0.626
  S408                      38.33       0.00       0.00       9.12       5.57      20.91      26.48        0.14     0.08   0.691
  S409                      38.33       0.00       0.00       8.99       3.73      25.31      29.04        0.48     0.30   0.758
  S410                      38.33       0.00       0.00       9.29       5.57      20.25      25.83        0.25     0.12   0.674
  S411                      38.33       0.00       0.00       9.17       3.73      24.73      28.46        0.22     0.12   0.742
  S412                      38.33       0.00       0.00       9.39       3.72      23.96      27.68        0.42     0.20   0.722
  S413                      38.33       0.00       0.00       7.91       3.73      26.61      30.34        0.09     0.07   0.791
  S414                      38.33       0.00       0.00       9.42       3.72      23.86      27.58        0.21     0.10   0.719
  S415                      38.33       0.00       0.00       7.75       8.58      21.78      30.36        0.35     0.22   0.792
  S416                      38.33       0.00       0.00       4.26      17.27      16.85      34.12        0.08     0.07   0.890
  S417                      38.33       0.00       0.00       6.99      11.46      19.71      31.16        0.28     0.18   0.813
  S418                      38.33       0.00       0.00       8.98       3.73      25.36      29.09        0.12     0.07   0.759
  S419                      38.33       0.00       0.00       7.10       8.60      22.62      31.22        0.16     0.12   0.814
  S420                      38.33       0.00       0.00       2.34      24.87      11.12      35.99        0.52     0.40   0.939
  S421                      38.33       0.00       0.00       7.92       8.58      21.20      29.78        0.15     0.09   0.777
  S422                      38.33       0.00       0.00       6.20      11.48      20.65      32.13        0.40     0.30   0.838
  S423                      38.33       0.00       0.00       8.04       8.57      20.79      29.36        0.51     0.27   0.766
  S424                      38.33       0.00       0.00       8.93       3.73      25.53      29.25        0.38     0.25   0.763
  S425                      38.33       0.00       0.00       7.85       3.73      26.67      30.40        0.09     0.07   0.793
  S426                      38.33       0.00       0.00       5.17      17.23      15.92      33.14        0.54     0.39   0.865
  S427                      38.33       0.00       0.00       9.35       5.57      20.02      25.59        0.30     0.14   0.668
  S428                      38.33       0.00       0.00       9.01       5.57      21.33      26.91        0.27     0.16   0.702
  S429                      38.33       0.00       0.00       9.03       5.57      21.24      26.82        0.10     0.06   0.700
  S430                      38.33       0.00       0.00       6.78      11.47      20.06      31.52        0.17     0.12   0.822
  S431                      38.33       0.00       0.00       9.22       5.57      20.53      26.10        0.10     0.05   0.681
  S432                      38.33       0.00       0.00       7.08      11.46      19.41      30.87        0.42     0.26   0.805
  S433                      38.33       0.00       0.00       9.01       5.57      21.32      26.90        0.09     0.06   0.702
  S434                      38.33       0.00       0.00       7.11       3.74      27.42      31.16        0.02     0.01   0.813
  S435                      38.33       0.00       0.00       2.35      24.86      11.10      35.96        0.66     0.51   0.938
  S436                      38.33       0.00       0.00       9.03       3.73      25.19      28.92        0.41     0.25   0.754
  S437                      38.33       0.00       0.00       9.02       3.73      25.23      28.95        0.53     0.32   0.755
  S438                      38.33       0.00       0.00       5.36      11.51      21.50      33.02        0.05     0.04   0.861
  S439                      38.33       0.00       0.00       4.39      17.26      16.71      33.97        0.27     0.21   0.886
  S440                      38.33       0.00       0.00       8.95       1.90      27.45      29.35        0.09     0.07   0.766
  S441                      38.33       0.00       0.00       6.58      11.47      20.27      31.74        0.27     0.19   0.828
  S442                      38.33       0.00       0.00       9.41       5.57      19.81      25.38        0.35     0.16   0.662
  S443                      38.33       0.00       0.00       8.92       3.73      25.54      29.27        0.38     0.25   0.763
  S444                      38.33       0.00       0.00       8.38       3.73      26.13      29.86        0.19     0.13   0.779
  S445                      38.33       0.00       0.00       8.09       1.90      28.31      30.21        0.25     0.20   0.788
  S446                      38.33       0.00       0.00       8.18       1.90      28.22      30.12        0.29     0.23   0.786
  S447                      38.33       0.00       0.00       9.54       1.90      26.50      28.39        0.26     0.15   0.741
  S448                      38.33       0.00       0.00       8.77       3.73      25.74      29.47        0.30     0.20   0.769
  S449                      38.33       0.00       0.00       9.63       3.72      23.10      26.82        0.36     0.14   0.700
  S450                      38.33       0.00       0.00       4.96      17.23      16.13      33.37        0.33     0.25   0.870
  S451                      38.33       0.00       0.00       9.93       0.87      26.90      27.77        0.08     0.04   0.724
  S452                      38.33       0.00       0.00      10.67       0.87      24.26      25.13        0.48     0.15   0.655
  S453                      38.33       0.00       0.00       8.42       1.90      27.98      29.89        0.41     0.32   0.780
  S454                      38.33       0.00       0.00       4.54      17.25      16.56      33.81        0.44     0.35   0.882
  S455                      38.33       0.00       0.00       4.18      17.28      16.93      34.21        0.17     0.14   0.892
  S456                      38.33       0.00       0.00       7.64       3.73      26.88      30.62        0.02     0.01   0.799
  S457                      38.33       0.00       0.00       9.42       3.72      23.87      27.59        0.45     0.21   0.720
  S458                      38.33       0.00       0.00       9.36       5.57      19.99      25.56        0.30     0.14   0.667
  S459                      38.33       0.00       0.00      10.56       0.87      24.66      25.53        0.38     0.13   0.666
  S460                      38.33       0.00       0.00       7.78       8.58      21.69      30.27        0.39     0.24   0.790
  S461                      38.33       0.00       0.00       8.98       3.73      25.36      29.09        0.46     0.29   0.759
  S462                      38.33       0.00       0.00       7.92       3.73      26.60      30.33        0.02     0.02   0.791
  S463                      38.33       0.00       0.00       9.44       3.72      23.78      27.51        0.48     0.22   0.718
  S464                      38.33       0.00       0.00       2.30      24.89      11.17      36.06        0.26     0.20   0.941
  S465                      38.33       0.00       0.00       4.03      17.30      17.09      34.39        0.03     0.02   0.897
  S466                      38.33       0.00       0.00       9.10       3.73      24.94      28.67        0.52     0.30   0.748
  S467                      38.33       0.00       0.00       7.38       1.91      29.04      30.95        0.06     0.05   0.807
  S468                      38.33       0.00       0.00       8.98       3.73      25.36      29.09        0.12     0.07   0.759
  S469                      38.33       0.00       0.00       9.42       3.72      23.84      27.56        0.46     0.21   0.719
  S470                      38.33       0.00       0.00       1.09      31.85       5.33      37.18        0.50     0.37   0.970
  S471                      38.33       0.00       0.00      10.67       0.87      24.26      25.13        0.48     0.15   0.655
  S472                      38.33       0.00       0.00       8.19       1.90      28.21      30.12        0.29     0.23   0.786
  S473                      38.33       0.00       0.00      10.47       0.87      24.99      25.86        0.31     0.11   0.674
  S474                      38.33       0.00       0.00       9.72       1.90      25.89      27.79        0.44     0.23   0.725
  S475                      38.33       0.00       0.00       4.00      17.30      17.11      34.41        0.07     0.06   0.898
  S476                      38.33       0.00       0.00       9.31       3.72      24.23      27.95        0.34     0.17   0.729
  S477                      38.33       0.00       0.00       8.19       8.57      20.25      28.82        0.38     0.19   0.752
  S478                      38.33       0.00       0.00       9.71       3.72      22.80      26.53        0.44     0.17   0.692
  S479                      38.33       0.00       0.00       9.06       5.57      21.15      26.72        0.33     0.19   0.697
  S480                      38.33       0.00       0.00       8.87       5.58      21.84      27.41        0.16     0.11   0.715
  S481                      38.33       0.00       0.00       9.61       1.90      26.27      28.17        0.32     0.18   0.735
  S482                      38.33       0.00       0.00       7.50       8.59      22.22      30.81        0.20     0.14   0.804
  S483                      38.33       0.00       0.00       4.78      17.24      16.32      33.56        0.46     0.35   0.875
  S484                      38.33       0.00       0.00       6.32      11.48      20.53      32.01        0.50     0.37   0.835
  S485                      38.33       0.00       0.00       1.06      31.91       5.37      37.28        0.11     0.08   0.973
  S486                      38.33       0.00       0.00       9.69       1.90      26.01      27.91        0.40     0.21   0.728
  S487                      38.33       0.00       0.00       9.18       5.57      20.68      26.25        0.17     0.09   0.685
  S488                      38.33       0.00       0.00       8.42       1.90      27.98      29.88        0.41     0.32   0.780
  S489                      38.33       0.00       0.00       8.07       8.57      20.71      29.28        0.55     0.29   0.764
  S490                      38.33       0.00       0.00       9.28       3.72      24.34      28.06        0.31     0.16   0.732
  S491                      38.33       0.00       0.00       9.52       1.90      26.59      28.49        0.24     0.14   0.743
  S492                      38.33       0.00       0.00       9.17       3.73      24.71      28.43        0.22     0.12   0.742
  S493                      38.33       0.00       0.00       8.06       1.90      28.34      30.25        0.24     0.19   0.789
  S494                      38.33       0.00       0.00       7.79       8.58      21.65      30.23        0.41     0.25   0.789
  S495                      38.33       0.00       0.00      10.59       0.87      24.55      25.42        0.40     0.13   0.663
  S496                      38.33       0.00       0.00       2.35      24.86      11.10      35.96        0.67     0.51   0.938
  S497                      38.33       0.00       0.00       7.89       8.58      21.31      29.89        0.30     0.18   0.780
  S498                      38.33       0.00       0.00       8.67       3.73      25.84      29.57        0.07     0.05   0.771
  S499                      38.33       0.00       0.00      10.69       0.87      24.19      25.06        0.50     0.15   0.654
  S500                      38.33       0.00       0.00       9.37       5.57      19.95      25.52        0.31     0.15   0.666
  S501                      38.33       0.00       0.00       8.51       3.73      26.01      29.74        0.22     0.15   0.776
  S502                      38.33       0.00       0.00       4.16      17.28      16.95      34.23        0.11     0.08   0.893
  S503                      38.33       0.00       0.00       8.98       3.73      25.34      29.07        0.47     0.29   0.758
  S504                      38.33       0.00       0.00       2.35      24.86      11.11      35.97        0.60     0.46   0.938
  S505                      38.33       0.00       0.00      10.36       0.87      25.41      26.28        0.24     0.09   0.686
  S506                      38.33       0.00       0.00       2.22      24.95      11.29      36.25        0.03     0.02   0.946
  S507                      38.33       0.00       0.00       9.44       3.72      23.77      27.50        0.48     0.22   0.717
  S508                      38.33       0.00       0.00       8.74       3.73      25.77      29.50        0.29     0.20   0.770
  S509                      38.33       0.00       0.00       8.48       1.90      27.92      29.82        0.45     0.35   0.778
  S510                      38.33       0.00       0.00       2.34      24.86      11.12      35.98        0.54     0.42   0.939
  S511                      38.33       0.00       0.00       7.11      11.45      19.31      30.77        0.47     0.28   0.803
  S512                      38.33       0.00       0.00       4.58      17.25      16.52      33.77        0.26     0.20   0.881
  S513                      38.33       0.00       0.00       9.72       1.90      25.88      27.78        0.44     0.23   0.725
  S514                      38.33       0.00       0.00       8.99       3.73      25.32      29.04        0.48     0.30   0.758
  S515                      38.33       0.00       0.00       6.33      11.48      20.52      32.00        0.51     0.38   0.835
  S516                      38.33       0.00       0.00       9.15       5.57      20.80      26.37        0.46     0.25   0.688
  S517                      38.33       0.00       0.00       7.75       1.91      28.66      30.57        0.13     0.11   0.797
  S518                      38.33       0.00       0.00       9.08       3.73      25.04      28.76        0.48     0.28   0.750
  S519                      38.33       0.00       0.00       2.31      24.88      11.16      36.04        0.30     0.23   0.940
  S520                      38.33       0.00       0.00       7.68       1.91      28.73      30.63        0.12     0.10   0.799
  S521                      38.33       0.00       0.00       9.38       5.57      19.90      25.47        0.33     0.15   0.664
  S522                      38.33       0.00       0.00       9.26       3.72      24.41      28.14        0.29     0.15   0.734
  S523                      38.33       0.00       0.00       8.65       1.90      27.75      29.65        0.56     0.42   0.773
  S524                      38.33       0.00       0.00       4.34      17.27      16.76      34.03        0.33     0.26   0.888
  S525                      38.33       0.00       0.00       9.04       3.73      25.16      28.89        0.56     0.34   0.754
  S526                      38.33       0.00       0.00       9.09       5.57      21.03      26.61        0.12     0.07   0.694
  S527                      38.33       0.00       0.00       7.22       3.74      27.31      31.05        0.00     0.00   0.810
  S528                      38.33       0.00       0.00       9.39       5.57      19.87      25.44        0.17     0.08   0.664
  S529                      38.33       0.00       0.00       8.13       3.73      26.39      30.12        0.03     0.03   0.786
  S530                      38.33       0.00       0.00       8.96       3.73      25.43      29.16        0.11     0.07   0.761
  S531                      38.33       0.00       0.00       8.54       3.73      25.98      29.71        0.23     0.16   0.775
  S532                      38.33       0.00       0.00       9.47       1.90      26.74      28.64        0.20     0.13   0.747
  S533                      38.33       0.00       0.00       9.23       3.73      24.53      28.26        0.12     0.06   0.737
  S534                      38.33       0.00       0.00       9.28       5.57      20.30      25.88        0.24     0.12   0.675
  S535                      38.33       0.00       0.00       4.48      17.26      16.62      33.88        0.19     0.15   0.884
  S536                      38.33       0.00       0.00       9.12       5.57      20.90      26.48        0.42     0.23   0.691
  S537                      38.33       0.00       0.00       1.09      31.84       5.33      37.17        0.57     0.42   0.970
  S538                      38.33       0.00       0.00       7.86       8.58      21.39      29.97        0.28     0.16   0.782
  S539                      38.33       0.00       0.00       6.79       8.60      22.94      31.54        0.09     0.07   0.823
  S540                      38.33       0.00       0.00       7.74       8.59      21.81      30.40        0.50     0.32   0.793
  S541                      38.33       0.00       0.00       8.96       3.73      25.42      29.14        0.32     0.20   0.760
  S542                      38.33       0.00       0.00       9.07       5.57      21.10      26.67        0.11     0.07   0.696
  S543                      38.33       0.00       0.00       9.16       5.57      20.76      26.33        0.16     0.09   0.687
  S544                      38.33       0.00       0.00       9.36       5.57      20.00      25.57        0.30     0.14   0.667
  S545                      38.33       0.00       0.00       8.35       3.73      26.17      29.90        0.04     0.03   0.780
  S546                      38.33       0.00       0.00       9.00       3.73      25.28      29.01        0.50     0.31   0.757
  S547                      38.33       0.00       0.00       5.85       8.61      23.89      32.50        0.01     0.01   0.848
  S548                      38.33       0.00       0.00       4.24      17.28      16.87      34.14        0.22     0.18   0.891
  S549                      38.33       0.00       0.00       4.98      17.23      16.11      33.35        0.35     0.26   0.870
  S550                      38.33       0.00       0.00       2.32      24.88      11.14      36.02        0.39     0.30   0.940
  S551                      38.33       0.00       0.00       8.02       3.73      26.49      30.22        0.11     0.09   0.788
  S552                      38.33       0.00       0.00       2.22      24.95      11.29      36.25        0.03     0.02   0.946
  S553                      38.33       0.00       0.00       9.31       5.57      20.17      25.74        0.13     0.06   0.672
  S554                      38.33       0.00       0.00       2.33      24.87      11.13      35.99        0.48     0.36   0.939
  S555                      38.33       0.00       0.00       8.33       3.73      26.19      29.92        0.13     0.09   0.780
  S556                      38.33       0.00       0.00       2.28      24.91      11.20      36.11        0.15     0.12   0.942
  S557                      38.33       0.00       0.00       9.64       5.57      18.88      24.45        0.35     0.14   0.638
  S558                      38.33       0.00       0.00       9.12       3.73      24.88      28.60        0.19     0.11   0.746
  S559                      38.33       0.00       0.00       6.08       8.61      23.66      32.27        0.01     0.01   0.842
  S560                      38.33       0.00       0.00       9.46       5.57      19.60      25.17        0.41     0.18   0.657
  S561                      38.33       0.00       0.00       9.80       1.90      25.63      27.53        0.55     0.27   0.718
  S562                      38.33       0.00       0.00       8.14       1.90      28.27      30.17        0.27     0.22   0.787
  S563                      38.33       0.00       0.00       7.87       8.58      21.38      29.96        0.55     0.32   0.782
  S564                      38.33       0.00       0.00       8.46       3.73      26.05      29.78        0.21     0.15   0.777
  S565                      38.33       0.00       0.00       7.76       1.91      28.65      30.56        0.14     0.12   0.797
  S566                      38.33       0.00       0.00       7.29       3.74      27.24      30.97        0.03     0.03   0.808
  S567                      38.33       0.00       0.00      10.46       0.87      25.04      25.91        0.30     0.11   0.676
  S568                      38.33       0.00       0.00       8.10       1.90      28.30      30.21        0.25     0.20   0.788
  S569                      38.33       0.00       0.00       9.65       5.57      18.81      24.38        0.36     0.14   0.636
  S570                      38.33       0.00       0.00      10.47       0.87      25.00      25.87        0.31     0.11   0.675
  S571                      38.33       0.00       0.00       8.10       1.90      28.30      30.21        0.25     0.20   0.788
  S572                      38.33       0.00       0.00       7.42       8.59      22.30      30.89        0.09     0.06   0.806
  S573                      38.33       0.00       0.00       4.66      17.24      16.43      33.68        0.33     0.26   0.879
  S574                      38.33       0.00       0.00       4.67      17.24      16.42      33.67        0.34     0.26   0.878
  S575                      38.33       0.00       0.00       2.34      24.86      11.11      35.98        0.56     0.43   0.939
  S576                      38.33       0.00       0.00       4.50      17.25      16.60      33.85        0.20     0.16   0.883
  S577                      38.33       0.00       0.00       5.60      11.50      21.25      32.76        0.10     0.08   0.855
  S578                      38.33       0.00       0.00       1.06      31.93       5.38      37.32        0.07     0.05   0.973
  S579                      38.33       0.00       0.00       9.30       3.72      24.27      27.99        0.32     0.16   0.730
  S580                      38.33       0.00       0.00       4.72      17.24      16.38      33.62        0.39     0.30   0.877
  S581                      38.33       0.00       0.00       8.94       3.73      25.49      29.21        0.40     0.26   0.762
  S582                      38.33       0.00       0.00       7.23       1.91      29.19      31.10        0.04     0.04   0.811
  S583                      38.33       0.00       0.00       1.05      31.94       5.39      37.33        0.06     0.04   0.974
  S584                      38.33       0.00       0.00       9.58       1.90      26.36      28.26        0.29     0.17   0.737
  S585                      38.33       0.00       0.00       1.08      31.86       5.34      37.20        0.39     0.29   0.970
  S586                      38.33       0.00       0.00       7.06       3.74      27.47      31.21        0.02     0.02   0.814
  S587                      38.33       0.00       0.00       9.38       3.72      23.99      27.71        0.41     0.19   0.723
  S588                      38.33       0.00       0.00       8.93       3.73      25.53      29.25        0.38     0.25   0.763
  S589                      38.33       0.00       0.00      10.44       0.87      25.13      26.00        0.28     0.10   0.678
  S590                      38.33       0.00       0.00       4.01      17.30      17.10      34.40        0.08     0.06   0.897
  S591                      38.33       0.00       0.00       9.32       3.72      24.22      27.94        0.34     0.17   0.729
  S592                      38.33       0.00       0.00       9.74       5.57      18.46      24.02        0.46     0.17   0.627
  S593                      38.33       0.00       0.00       7.92       8.58      21.22      29.80        0.15     0.09   0.777
  S594                      38.33       0.00       0.00       9.73       1.90      25.85      27.75        0.46     0.23   0.724
  S595                      38.33       0.00       0.00      10.03       0.87      26.55      27.42        0.10     0.05   0.715
  S596                      38.33       0.00       0.00       6.75      11.47      20.09      31.56        0.35     0.25   0.823
  S597                      38.33       0.00       0.00       6.94      11.46      19.88      31.35        0.48     0.32   0.818
[...]
  S848                      38.33       0.00       0.00       8.98       3.73      25.37      29.10        0.45     0.28   0.759
  S849                      38.33       0.00       0.00       4.39      17.26      16.71      33.97        0.40     0.32   0.886
  S850                      38.33       0.00       0.00       8.21       1.90      28.19      30.10        0.30     0.24   0.785
  S851                      38.33       0.00       0.00       9.33       3.72      24.18      27.91        0.35     0.17   0.728
  S852                      38.33       0.00       0.00       9.55       5.57      19.24      24.81        0.27     0.11   0.647
  S853                      38.33       0.00       0.00       7.88       8.58      21.33      29.91        0.13     0.08   0.780
  S854                      38.33       0.00       0.00       9.45       3.72      23.74      27.46        0.49     0.22   0.716
  S855                      38.33       0.00       0.00       9.52       1.90      26.59      28.49        0.24     0.14   0.743
  S856                      38.33       0.00       0.00       6.34      11.48      20.50      31.98        0.52     0.39   0.834
  S857                      38.33       0.00       0.00       7.12      11.45      19.28      30.73        0.49     0.29   0.802
  S858                      38.33       0.00       0.00       4.35      17.27      16.75      34.02        0.12     0.09   0.887
  S859                      38.33       0.00       0.00       7.45       8.59      22.27      30.87        0.18     0.13   0.805
  S860                      38.33       0.00       0.00       2.35      24.86      11.10      35.96        0.67     0.51   0.938
  S861                      38.33       0.00       0.00       7.71       8.59      21.91      30.50        0.30     0.19   0.796
  S862                      38.33       0.00       0.00       8.66       1.90      27.74      29.64        0.07     0.05   0.773
  S863                      38.33       0.00       0.00       4.51      17.25      16.59      33.84        0.61     0.48   0.883
  S864                      38.33       0.00       0.00       9.25       3.73      24.45      28.17        0.28     0.14   0.735
  S865                      38.33       0.00       0.00       4.25      17.27      16.86      34.13        0.08     0.06   0.890
  S866                      38.33       0.00       0.00       8.30       3.73      26.22      29.95        0.16     0.12   0.781
  S867                      38.33       0.00       0.00       2.32      24.88      11.15      36.02        0.36     0.27   0.940
  S868                      38.33       0.00       0.00       4.74      17.24      16.36      33.60        0.41     0.31   0.876
  S869                      38.33       0.00       0.00       2.34      24.87      11.12      35.99        0.51     0.39   0.939
  S870                      38.33       0.00       0.00       9.77       1.90      25.73      27.62        0.51     0.25   0.721
  S871                      38.33       0.00       0.00       9.77       0.87      27.43      28.31        0.05     0.03   0.738
  S872                      38.33       0.00       0.00       7.06       3.74      27.47      31.21        0.02     0.02   0.814
  S873                      38.33       0.00       0.00       9.38       3.72      24.00      27.72        0.40     0.19   0.723
  S874                      38.33       0.00       0.00       9.26       3.72      24.42      28.15        0.28     0.15   0.734
  S875                      38.33       0.00       0.00       9.36       5.57      19.99      25.56        0.30     0.14   0.667
  S876                      38.33       0.00       0.00       4.28      17.27      16.82      34.10        0.27     0.21   0.889
  S877                      38.33       0.00       0.00       9.25       3.73      24.46      28.18        0.28     0.14   0.735
  S878                      38.33       0.00       0.00       7.67       8.59      22.03      30.62        0.38     0.25   0.799
  S879                      38.33       0.00       0.00       4.51      17.25      16.59      33.85        0.60     0.47   0.883
  S880                      38.33       0.00       0.00       6.61      11.47      20.23      31.70        0.13     0.09   0.827
  S881                      38.33       0.00       0.00       7.74       8.58      21.80      30.38        0.17     0.11   0.793
  S882                      38.33       0.00       0.00       7.88       8.58      21.34      29.92        0.29     0.17   0.780
  S883                      38.33       0.00       0.00       8.51       3.73      26.01      29.74        0.22     0.15   0.776
  S884                      38.33       0.00       0.00       7.89       8.58      21.31      29.89        0.59     0.35   0.780
  S885                      38.33       0.00       0.00       8.92       3.73      25.56      29.29        0.09     0.06   0.764
  S886                      38.33       0.00       0.00       1.07      31.90       5.37      37.26        0.15     0.11   0.972
  S887                      38.33       0.00       0.00       8.40       1.90      28.00      29.91        0.39     0.31   0.780
  S888                      38.33       0.00       0.00       8.02       3.73      26.49      30.22        0.11     0.09   0.788
  S889                      38.33       0.00       0.00       2.25      24.94      11.24      36.18        0.07     0.05   0.944
  S890                      38.33       0.00       0.00       4.51      17.25      16.59      33.84        0.62     0.48   0.883
  S891                      38.33       0.00       0.00       8.69       5.58      22.52      28.10        0.06     0.05   0.733
  S892                      38.33       0.00       0.00       8.63       1.90      27.76      29.67        0.55     0.41   0.774
  S893                      38.33       0.00       0.00       4.54      17.25      16.56      33.81        0.66     0.52   0.882
  S894                      38.33       0.00       0.00       7.77       8.58      21.72      30.31        0.56     0.35   0.791
  S895                      38.33       0.00       0.00      10.51       0.87      24.88      25.74        0.33     0.12   0.672
  S896                      38.33       0.00       0.00       8.89       3.73      25.62      29.35        0.09     0.06   0.766
  S897                      38.33       0.00       0.00       5.17      17.23      15.92      33.15        0.53     0.38   0.865
  S898                      38.33       0.00       0.00       9.64       5.57      18.86      24.43        0.35     0.14   0.637
  S899                      38.33       0.00       0.00       8.51       1.90      27.89      29.79        0.46     0.36   0.777
  S900                      38.33       0.00       0.00      10.53       0.87      24.77      25.64        0.35     0.12   0.669
  S901                      38.33       0.00       0.00       7.89       8.58      21.31      29.89        0.30     0.18   0.780
  S902                      38.33       0.00       0.00       9.01       3.73      25.25      28.98        0.13     0.08   0.756
  S903                      38.33       0.00       0.00       7.70       8.59      21.96      30.55        0.28     0.18   0.797
  S904                      38.33       0.00       0.00       1.08      31.86       5.34      37.21        0.35     0.26   0.971
  S905                      38.33       0.00       0.00       7.71       8.59      21.92      30.50        0.44     0.29   0.796
  S906                      38.33       0.00       0.00       8.26       3.73      26.26      29.99        0.16     0.12   0.782
  S907                      38.33       0.00       0.00       2.30      24.90      11.18      36.07        0.22     0.17   0.941
  S908                      38.33       0.00       0.00       4.15      17.29      16.95      34.24        0.10     0.08   0.893
  S909                      38.33       0.00       0.00       8.81       3.73      25.70      29.43        0.31     0.21   0.768
  S910                      38.33       0.00       0.00       6.24      11.48      20.61      32.09        0.43     0.32   0.837
  S911                      38.33       0.00       0.00       9.33       5.57      20.12      25.69        0.27     0.13   0.670
  S912                      38.33       0.00       0.00      10.33       0.87      25.51      26.38        0.22     0.09   0.688
  S913                      38.33       0.00       0.00       9.30       5.57      20.24      25.81        0.13     0.06   0.673
  S914                      38.33       0.00       0.00       8.06       8.57      20.73      29.31        0.54     0.28   0.764
  S915                      38.33       0.00       0.00       6.74       1.92      29.70      31.62        0.01     0.01   0.825
  S916                      38.33       0.00       0.00       7.75       1.91      28.66      30.57        0.13     0.11   0.797
  S917                      38.33       0.00       0.00       8.93       3.73      25.53      29.25        0.38     0.25   0.763
  S918                      38.33       0.00       0.00       6.88       1.91      29.55      31.47        0.02     0.01   0.821
  S919                      38.33       0.00       0.00       9.61       5.57      18.97      24.54        0.33     0.13   0.640
  S920                      38.33       0.00       0.00       2.34      24.87      11.12      35.99        0.50     0.38   0.939
  S921                      38.33       0.00       0.00      10.40       0.87      25.27      26.14        0.26     0.10   0.682
  S922                      38.33       0.00       0.00       4.58      17.25      16.52      33.77        0.51     0.40   0.881
  S923                      38.33       0.00       0.00       9.15       3.73      24.80      28.53        0.20     0.11   0.744
  S924                      38.33       0.00       0.00       7.75       8.58      21.76      30.35        0.36     0.22   0.792
  S925                      38.33       0.00       0.00       9.31       3.72      24.23      27.95        0.34     0.17   0.729
  S926                      38.33       0.00       0.00       9.18       5.57      20.68      26.25        0.09     0.05   0.685
  S927                      38.33       0.00       0.00       2.31      24.89      11.16      36.05        0.27     0.21   0.940
  S928                      38.33       0.00       0.00       4.82      17.24      16.27      33.51        0.51     0.39   0.874
  S929                      38.33       0.00       0.00       9.21       1.90      27.18      29.08        0.13     0.09   0.759
  S930                      38.33       0.00       0.00       9.41       5.57      19.81      25.38        0.35     0.16   0.662
  S931                      38.33       0.00       0.00      10.47       0.87      24.99      25.86        0.31     0.11   0.674
  S932                      38.33       0.00       0.00      10.19       0.87      26.01      26.88        0.16     0.07   0.701
  S933                      38.33       0.00       0.00       9.48       3.72      23.65      27.37        0.53     0.23   0.714
  S934                      38.33       0.00       0.00       6.89      11.46      19.95      31.42        0.44     0.30   0.820
  S935                      38.33       0.00       0.00       6.58      11.47      20.27      31.74        0.27     0.19   0.828
  S936                      38.33       0.00       0.00       4.96      17.23      16.13      33.37        0.33     0.25   0.870
  S937                      38.33       0.00       0.00       3.98      17.31      17.14      34.44        0.04     0.03   0.899
  S938                      38.33       0.00       0.00       7.05      11.46      19.49      30.94        0.38     0.24   0.807
  S939                      38.33       0.00       0.00       9.34       3.72      24.14      27.86        0.36     0.18   0.727
  S940                      38.33       0.00       0.00       9.22       5.57      20.55      26.12        0.19     0.10   0.681
  S941                      38.33       0.00       0.00       7.76       8.58      21.74      30.32        0.08     0.05   0.791
  S942                      38.33       0.00       0.00       8.45       3.73      26.06      29.79        0.20     0.15   0.777
  S943                      38.33       0.00       0.00       2.35      24.86      11.10      35.96        0.66     0.51   0.938
  S944                      38.33       0.00       0.00       4.92      17.23      16.18      33.41        0.65     0.49   0.872
  S945                      38.33       0.00       0.00       8.19       8.57      20.28      28.85        0.37     0.18   0.753
  S946                      38.33       0.00       0.00       4.86      17.24      16.24      33.47        0.56     0.42   0.873
  S947                      38.33       0.00       0.00      10.59       0.87      24.58      25.45        0.40     0.13   0.664
  S948                      38.33       0.00       0.00       4.83      17.24      16.26      33.50        0.24     0.18   0.874
  S949                      38.33       0.00       0.00       9.32       3.72      24.20      27.92        0.34     0.17   0.728
  S950                      38.33       0.00       0.00       8.02       1.90      28.39      30.29        0.22     0.18   0.790
  S951                      38.33       0.00       0.00       9.47       1.90      26.76      28.65        0.20     0.12   0.748
  S952                      38.33       0.00       0.00       9.79       1.90      25.66      27.56        0.53     0.26   0.719
  S953                      38.33       0.00       0.00      10.18       0.87      26.04      26.91        0.15     0.07   0.702
  S954                      38.33       0.00       0.00       7.72       8.59      21.88      30.47        0.46     0.30   0.795
  S955                      38.33       0.00       0.00       4.79      17.24      16.30      33.54        0.48     0.36   0.875
  S956                      38.33       0.00       0.00       9.51       1.90      26.61      28.51        0.23     0.14   0.744
  S957                      38.33       0.00       0.00       6.78       8.60      22.95      31.55        0.03     0.02   0.823
  S958                      38.33       0.00       0.00       2.35      24.86      11.11      35.97        0.58     0.45   0.938
  S959                      38.33       0.00       0.00       1.08      31.87       5.35      37.22        0.28     0.21   0.971
  S960                      38.33       0.00       0.00       8.97       1.90      27.42      29.32        0.10     0.07   0.765
  S961                      38.33       0.00       0.00       6.40      11.48      20.45      31.92        0.57     0.43   0.833
  S962                      38.33       0.00       0.00       8.21       1.90      28.19      30.10        0.30     0.24   0.785
  S963                      38.33       0.00       0.00       8.09       3.73      26.42      30.16        0.12     0.09   0.787
  S964                      38.33       0.00       0.00       8.34       3.73      26.17      29.90        0.13     0.10   0.780
  S965                      38.33       0.00       0.00       9.45       1.90      26.81      28.71        0.19     0.12   0.749
  S966                      38.33       0.00       0.00       9.33       5.57      20.10      25.68        0.28     0.13   0.670
  S967                      38.33       0.00       0.00       8.01       8.57      20.91      29.48        0.46     0.25   0.769
  S968                      38.33       0.00       0.00       9.64       5.57      18.87      24.44        0.35     0.14   0.637
  S969                      38.33       0.00       0.00       9.12       3.73      24.88      28.61        0.55     0.31   0.746
  S970                      38.33       0.00       0.00       1.05      31.97       5.41      37.38        0.03     0.02   0.975
  S971                      38.33       0.00       0.00       8.25       1.90      28.15      30.05        0.32     0.25   0.784
  S972                      38.33       0.00       0.00       1.08      31.85       5.34      37.19        0.42     0.31   0.970
  S973                      38.33       0.00       0.00       9.39       3.72      23.96      27.69        0.42     0.20   0.722
  S974                      38.33       0.00       0.00       6.94       1.91      29.49      31.41        0.02     0.02   0.819
  S975                      38.33       0.00       0.00       4.12      17.29      16.98      34.27        0.13     0.11   0.894
  S976                      38.33       0.00       0.00       9.00       3.73      25.30      29.02        0.12     0.08   0.757
  S977                      38.33       0.00       0.00      10.46       0.87      25.02      25.89        0.30     0.11   0.675
  S978                      38.33       0.00       0.00       2.35      24.86      11.11      35.97        0.59     0.46   0.938
  S979                      38.33       0.00       0.00       7.99       8.57      20.96      29.53        0.43     0.24   0.770
  S980                      38.33       0.00       0.00       9.72       1.90      25.88      27.78        0.44     0.23   0.725
  S981                      38.33       0.00       0.00       8.09       1.90      28.32      30.22        0.24     0.20   0.788
  S982                      38.33       0.00       0.00       4.63      17.25      16.47      33.71        0.59     0.46   0.879
  S983                      38.33       0.00       0.00       9.35       3.72      24.09      27.82        0.38     0.18   0.726
  S984                      38.33       0.00       0.00       7.72       8.59      21.89      30.47        0.30     0.20   0.795
  S985                      38.33       0.00       0.00       9.20       0.87      28.25      29.12        0.02     0.01   0.760
  S986                      38.33       0.00       0.00       8.04       3.73      26.48      30.21        0.11     0.09   0.788
  S987                      38.33       0.00       0.00       7.32       8.60      22.40      31.00        0.23     0.16   0.809
  S988                      38.33       0.00       0.00       9.70       5.57      18.63      24.20        0.41     0.15   0.631
  S989                      38.33       0.00       0.00       9.60       1.90      26.31      28.21        0.31     0.17   0.736
  S990                      38.33       0.00       0.00       4.10      17.29      17.01      34.30        0.12     0.10   0.895
  S991                      38.33       0.00       0.00       8.81       5.58      22.08      27.66        0.04     0.03   0.722
  S992                      38.33       0.00       0.00       1.09      31.83       5.32      37.16        0.74     0.55   0.969
  S993                      38.33       0.00       0.00       7.75       3.73      26.77      30.50        0.05     0.04   0.796
  S994                      38.33       0.00       0.00       6.51      11.47      20.34      31.81        0.11     0.08   0.830
  S995                      38.33       0.00       0.00       8.96       3.73      25.43      29.15        0.32     0.20   0.761
  S996                      38.33       0.00       0.00       8.65       1.90      27.75      29.65        0.56     0.42   0.774
  S997                      38.33       0.00       0.00       9.31       3.72      24.24      27.96        0.33     0.17   0.729
  S998                      38.33       0.00       0.00       2.22      24.95      11.31      36.26        0.02     0.01   0.946
  S999                      38.33       0.00       0.00       6.09      11.48      20.76      32.24        0.21     0.16   0.841
  S1000                     38.33       0.00       0.00       9.13       3.73      24.85      28.57        0.19     0.11   0.745
  S1001                     38.33       0.00       0.00       1.06      31.92       5.38      37.30        0.10     0.07   0.973
  

  Analysis begun on:  Sat May 20 09:32:49 2023
  Analysis ended on:  Sat May 20 09:32:50 2023
  Total elapsed time: 00:00:01