
  OWA STORM WATER MANAGEMENT MODEL - VERSION v5.2.3 (OWA 2023-03-28)
  ------------------------------------------------------------

  WARNING 09: time series interval greater than recording interval for Rain Gage Raingage2
  WARNING 01: wet weather time step reduced to recording interval for Rain Gage Raingage2
  
  ****************
  Analysis Options
  ****************
  Flow Units ............... CMS
  Process Models:
    Rainfall/Runoff ........ YES
    RDII ................... NO
    Snowmelt ............... NO
    Groundwater ............ NO
    Flow Routing ........... NO
    Water Quality .......... NO
  Infiltration Method ...... MODIFIED_GREEN_AMPT
  Starting Date ............ 06/17/2022 00:00:00
  Ending Date .............. 06/17/2022 12:00:00
  Antecedent Dry Days ...... 0.0
  Report Time Step ......... 00:15:00
  Wet Time Step ............ 00:01:00
  Dry Time Step ............ 01:00:00
  
  
  **************************        Volume         Depth
  Runoff Quantity Continuity     hectare-m            mm
  **************************     ---------       -------
  Total Precipitation ......         3.189         3.167
  Evaporation Loss .........         0.000         0.000
  Infiltration Loss ........         2.451         2.434
  Surface Runoff ...........         0.639         0.634
  Final Storage ............         0.105         0.104
  Continuity Error (%) .....        -0.176
  
  
  **************************        Volume        Volume
  Flow Routing Continuity        hectare-m      10^6 ltr
  **************************     ---------     ---------
  Dry Weather Inflow .......         0.000         0.000
  Wet Weather Inflow .......         0.639         6.388
  Groundwater Inflow .......         0.000         0.000
  RDII Inflow ..............         0.000         0.000
  External Inflow ..........         0.000         0.000
  External Outflow .........         0.639         6.388
  Flooding Loss ............         0.000         0.000
  Evaporation Loss .........         0.000         0.000
  Exfiltration Loss ........         0.000         0.000
  Initial Stored Volume ....         0.000         0.000
  Final Stored Volume ......         0.000         0.000
  Continuity Error (%) .....         0.000
  
  
  ***************************
  Subcatchment Runoff Summary
  ***************************
  
  ------------------------------------------------------------------------------------------------------------------------------
                            Total      Total      Total      Total     Imperv       Perv      Total       Total     Peak  Runoff
                           Precip      Runon       Evap      Infil     Runoff     Runoff     Runoff      Runoff   Runoff   Coeff
  Subcatchment                 mm         mm         mm         mm         mm         mm         mm    10^6 ltr      CMS
  ------------------------------------------------------------------------------------------------------------------------------
  S1                         3.17       0.00       0.00       2.53       0.56       0.00       0.56        0.00     0.00   0.177
  S2                         3.17       0.00       0.00       1.74       1.37       0.00       1.37        0.02     0.00   0.434
  S3                         3.17       0.00       0.00       3.01       0.11       0.00       0.11        0.00     0.00   0.033
  S4                         3.17       0.00       0.00       2.69       0.29       0.00       0.29        0.00     0.00   0.093
  S5                         3.17       0.00       0.00       2.45       0.64       0.00       0.64        0.01     0.00   0.201
  S6                         3.17       0.00       0.00       2.85       0.20       0.00       0.20        0.00     0.00   0.064
  S7                         3.17       0.00       0.00       3.01       0.10       0.00       0.10        0.00     0.00   0.033
  S8                         3.17       0.00       0.00       2.69       0.29       0.00       0.29        0.00     0.00   0.092
  S9                         3.17       0.00       0.00       1.74       1.38       0.00       1.38        0.01     0.00   0.434
  S10                        3.17       0.00       0.00       1.74       1.38       0.00       1.38        0.03     0.00   0.435
  S11                        3.17       0.00       0.00       2.22       0.88       0.00       0.88        0.01     0.00   0.277
  S12                        3.17       0.00       0.00       3.01       0.11       0.00       0.11        0.00     0.00   0.034
  S13                        3.17       0.00       0.00       2.85       0.20       0.00       0.20        0.00     0.00   0.064
  S14                        3.17       0.00       0.00       3.09       0.05       0.00       0.05        0.00     0.00   0.015
  S15                        3.17       0.00       0.00       1.74       1.37       0.00       1.37        0.02     0.00   0.434
  S16                        3.17       0.00       0.00       2.22       0.88       0.00       0.88        0.01     0.00   0.279
  S17                        3.17       0.00       0.00       2.69       0.29       0.00       0.29        0.00     0.00   0.093
  S18                        3.17       0.00       0.00       3.01       0.10       0.00       0.10        0.00     0.00   0.033
  S19                        3.17       0.00       0.00       2.45       0.63       0.00       0.63        0.01     0.00   0.200
  S20                        3.17       0.00       0.00       1.74       1.38       0.00       1.38        0.01     0.00   0.435
  S21                        3.17       0.00       0.00       2.85       0.20       0.00       0.20        0.00     0.00   0.064
  S22                        3.17       0.00       0.00       2.85       0.20       0.00       0.20        0.00     0.00   0.064
  S23                        3.17       0.00       0.00       2.45       0.63       0.00       0.63        0.01     0.00   0.200
  S24                        3.17       0.00       0.00       1.11       1.93       0.00       1.93        0.01     0.00   0.610
  S25                        3.17       0.00       0.00       2.45       0.68       0.00       0.68        0.00     0.00   0.216
  S26                        3.17       0.00       0.00       2.22       0.89       0.00       0.89        0.00     0.00   0.282
  S27                        3.17       0.00       0.00       2.22       0.88       0.00       0.88        0.02     0.00   0.278
  S28                        3.17       0.00       0.00       2.69       0.29       0.00       0.29        0.00     0.00   0.092
  S29                        3.17       0.00       0.00       3.01       0.10       0.00       0.10        0.00     0.00   0.033
  S30                        3.17       0.00       0.00       1.74       1.38       0.00       1.38        0.03     0.00   0.434
  S31                        3.17       0.00       0.00       1.74       1.41       0.00       1.41        0.00     0.00   0.447
  S32                        3.17       0.00       0.00       2.85       0.20       0.00       0.20        0.00     0.00   0.064
  S33                        3.17       0.00       0.00       1.74       1.38       0.00       1.38        0.01     0.00   0.435
  S34                        3.17       0.00       0.00       2.85       0.20       0.00       0.20        0.00     0.00   0.064
  S35                        3.17       0.00       0.00       1.11       1.91       0.00       1.91        0.04     0.01   0.604
  S36                        3.17       0.00       0.00       2.45       0.63       0.00       0.63        0.00     0.00   0.200
  S37                        3.17       0.00       0.00       2.69       0.29       0.00       0.29        0.00     0.00   0.091
  S38                        3.17       0.00       0.00       2.69       0.29       0.00       0.29        0.00     0.00   0.091
  S39                        3.17       0.00       0.00       3.09       0.05       0.00       0.05        0.00     0.00   0.015
  S40                        3.17       0.00       0.00       1.74       1.38       0.00       1.38        0.02     0.00   0.436
  S41                        3.17       0.00       0.00       2.85       0.20       0.00       0.20        0.00     0.00   0.064
  S42                        3.17       0.00       0.00       1.11       1.91       0.00       1.91        0.03     0.01   0.604
  S43                        3.17       0.00       0.00       1.74       1.37       0.00       1.37        0.03     0.00   0.432
  S44                        3.17       0.00       0.00       2.69       0.29       0.00       0.29        0.00     0.00   0.092
  S45                        3.17       0.00       0.00       2.22       0.88       0.00       0.88        0.01     0.00   0.279
  S46                        3.17       0.00       0.00       2.69       0.29       0.00       0.29        0.00     0.00   0.092
  S47                        3.17       0.00       0.00       2.45       0.64       0.00       0.64        0.01     0.00   0.201
  S48                        3.17       0.00       0.00       3.01       0.10       0.00       0.10        0.00     0.00   0.033
  S49                        3.17       0.00       0.00       1.74       1.38       0.00       1.38        0.02     0.00   0.434
  S50                        3.17       0.00       0.00       2.45       0.63       0.00       0.63        0.01     0.00   0.200
  S51                        3.17       0.00       0.00       1.11       1.92       0.00       1.92        0.02     0.01   0.606
  S52                        3.17       0.00       0.00       2.85       0.20       0.00       0.20        0.00     0.00   0.064
  S53                        3.17       0.00       0.00       3.09       0.05       0.00       0.05        0.00     0.00   0.015
  S54                        3.17       0.00       0.00       2.22       0.89       0.00       0.89        0.01     0.00   0.282
  S55                        3.17       0.00       0.00       3.01       0.10       0.00       0.10        0.00     0.00   0.033
  S56                        3.17       0.00       0.00       2.69       0.29       0.00       0.29        0.00     0.00   0.093
  S57                        3.17       0.00       0.00       2.85       0.20       0.00       0.20        0.00     0.00   0.064
  S58                        3.17       0.00       0.00       2.45       0.64       0.00       0.64        0.00     0.00   0.201
  S59                        3.17       0.00       0.00       2.85       0.20       0.00       0.20        0.00     0.00   0.064
  S60                        3.17       0.00       0.00       3.09       0.05       0.00       0.05        0.00     0.00   0.015
  S61                        3.17       0.00       0.00       2.69       0.29       0.00       0.29        0.00     0.00   0.092
  S62                        3.17       0.00       0.00       2.69       0.29       0.00       0.29        0.00     0.00   0.092
  S63                        3.17       0.00       0.00       2.45       0.68       0.00       0.68        0.00     0.00   0.214
  S64                        3.17       0.00       0.00       2.85       0.20       0.00       0.20        0.00     0.00   0.064
  S65                        3.17       0.00       0.00       3.09       0.05       0.00       0.05        0.00     0.00   0.015
  S66                        3.17       0.00       0.00       2.85       0.20       0.00       0.20        0.00     0.00   0.064
  S67                        3.17       0.00       0.00       2.22       0.88       0.00       0.88        0.01     0.00   0.278
  S68                        3.17       0.00       0.00       2.85       0.21       0.00       0.21        0.00     0.00   0.065
  S69                        3.17       0.00       0.00       1.74       1.37       0.00       1.37        0.02     0.00   0.433
  S70                        3.17       0.00       0.00       1.11       1.92       0.00       1.92        0.03     0.01   0.605
  S71                        3.17       0.00       0.00       2.69       0.29       0.00       0.29        0.00     0.00   0.092
  S72                        3.17       0.00       0.00       1.74       1.39       0.00       1.39        0.00     0.00   0.440
  S73                        3.17       0.00       0.00       3.01       0.11       0.00       0.11        0.00     0.00   0.033
  S74                        3.17       0.00       0.00       0.53       2.47       0.00       2.47        0.01     0.00   0.779
  S75                        3.17       0.00       0.00       1.74       1.38       0.00       1.38        0.01     0.00   0.436
  S76                        3.17       0.00       0.00       0.53       2.44       0.00       2.44        0.05     0.01   0.771
  S77                        3.17       0.00       0.00       2.69       0.29       0.00       0.29        0.00     0.00   0.093
  S78                        3.17       0.00       0.00       2.69       0.29       0.00       0.29        0.00     0.00   0.092
  S79                        3.17       0.00       0.00       1.74       1.39       0.00       1.39        0.01     0.00   0.438
  S80                        3.17       0.00       0.00       2.69       0.29       0.00       0.29        0.00     0.00   0.092
  S81                        3.17       0.00       0.00       2.85       0.20       0.00       0.20        0.00     0.00   0.064
  S82                        3.17       0.00       0.00       2.45       0.64       0.00       0.64        0.00     0.00   0.201
  S83                        3.17       0.00       0.00       1.11       1.92       0.00       1.92        0.03     0.01   0.605
  S84                        3.17       0.00       0.00       1.74       1.38       0.00       1.38        0.01     0.00   0.435
  S85                        3.17       0.00       0.00       0.53       2.45       0.00       2.45        0.02     0.00   0.775
  S86                        3.17       0.00       0.00       3.01       0.10       0.00       0.10        0.00     0.00   0.033
  S87                        3.17       0.00       0.00       2.22       0.88       0.00       0.88        0.02     0.00   0.278
  S88                        3.17       0.00       0.00       3.01       0.10       0.00       0.10        0.00     0.00   0.033
  S89                        3.17       0.00       0.00       2.45       0.63       0.00       0.63        0.01     0.00   0.199
  S90                        3.17       0.00       0.00       2.85       0.20       0.00       0.20        0.00     0.00   0.064
  S91                        3.17       0.00       0.00       2.85       0.20       0.00       0.20        0.00     0.00   0.064
  S92                        3.17       0.00       0.00       3.01       0.10       0.00       0.10        0.00     0.00   0.033
  S93                        3.17       0.00       0.00       0.53       2.49       0.00       2.49        0.00     0.00   0.788
  S94                        3.17       0.00       0.00       3.01       0.10       0.00       0.10        0.00     0.00   0.033
  S95                        3.17       0.00       0.00       2.85       0.20       0.00       0.20        0.00     0.00   0.064
  S96                        3.17       0.00       0.00       2.85       0.20       0.00       0.20        0.00     0.00   0.064
  S97                        3.17       0.00       0.00       3.01       0.11       0.00       0.11        0.00     0.00   0.033
  S98                        3.17       0.00       0.00       1.74       1.37       0.00       1.37        0.03     0.00   0.434
  S99                        3.17       0.00       0.00       1.11       1.91       0.00       1.91        0.03     0.01   0.604
  S100                       3.17       0.00       0.00       1.74       1.38       0.00       1.38        0.02     0.00   0.434
  S101                       3.17       0.00       0.00       2.45       0.63       0.00       0.63        0.01     0.00   0.200
  S102                       3.17       0.00       0.00       2.45       0.63       0.00       0.63        0.01     0.00   0.199
  S103                       3.17       0.00       0.00       3.01       0.10       0.00       0.10        0.00     0.00   0.033
  S104                       3.17       0.00       0.00       2.85       0.20       0.00       0.20        0.00     0.00   0.064
  S105                       3.17       0.00       0.00       2.85       0.20       0.00       0.20        0.00     0.00   0.064
  S106                       3.17       0.00       0.00       3.09       0.05       0.00       0.05        0.00     0.00   0.015
  S107                       3.17       0.00       0.00       1.74       1.37       0.00       1.37        0.02     0.00   0.433
  S108                       3.17       0.00       0.00       2.69       0.29       0.00       0.29        0.00     0.00   0.092
  S109                       3.17       0.00       0.00       2.69       0.29       0.00       0.29        0.00     0.00   0.092
  S110                       3.17       0.00       0.00       2.85       0.20       0.00       0.20        0.00     0.00   0.064
  S111                       3.17       0.00       0.00       2.45       0.63       0.00       0.63        0.01     0.00   0.199
  S112                       3.17       0.00       0.00       2.22       0.88       0.00       0.88        0.01     0.00   0.279
  S113                       3.17       0.00       0.00       2.69       0.29       0.00       0.29        0.00     0.00   0.091
  S114                       3.17       0.00       0.00       3.01       0.10       0.00       0.10        0.00     0.00   0.033
  S115                       3.17       0.00       0.00       1.11       1.92       0.00       1.92        0.03     0.01   0.605
  S116                       3.17       0.00       0.00       3.09       0.05       0.00       0.05        0.00     0.00   0.015
  S117                       3.17       0.00       0.00       2.45       0.63       0.00       0.63        0.01     0.00   0.199
  S118                       3.17       0.00       0.00       3.01       0.11       0.00       0.11        0.00     0.00   0.033
  S119                       3.17       0.00       0.00       0.53       2.47       0.00       2.47        0.01     0.00   0.779
  S120                       3.17       0.00       0.00       2.69       0.29       0.00       0.29        0.00     0.00   0.092
  S121                       3.17       0.00       0.00       2.85       0.20       0.00       0.20        0.00     0.00   0.064
  S122                       3.17       0.00       0.00       2.45       0.64       0.00       0.64        0.00     0.00   0.201
  S123                       3.17       0.00       0.00       2.45       0.64       0.00       0.64        0.01     0.00   0.202
  S124                       3.17       0.00       0.00       2.85       0.21       0.00       0.21        0.00     0.00   0.066
  S125                       3.17       0.00       0.00       3.01       0.10       0.00       0.10        0.00     0.00   0.033
  S126                       3.17       0.00       0.00       1.74       1.38       0.00       1.38        0.01     0.00   0.436
  S127                       3.17       0.00       0.00       3.01       0.10       0.00       0.10        0.00     0.00   0.033
  S128                       3.17       0.00       0.00       2.45       0.63       0.00       0.63        0.01     0.00   0.199
  S129                       3.17       0.00       0.00       3.01       0.11       0.00       0.11        0.00     0.00   0.033
  S130                       3.17       0.00       0.00       3.09       0.05       0.00       0.05        0.00     0.00   0.015
  S131                       3.17       0.00       0.00       2.85       0.20       0.00       0.20        0.00     0.00   0.064
  S132                       3.17       0.00       0.00       3.09       0.05       0.00       0.05        0.00     0.00   0.015
  S133                       3.17       0.00       0.00       2.69       0.29       0.00       0.29        0.01     0.00   0.091
  S134                       3.17       0.00       0.00       2.69       0.29       0.00       0.29        0.00     0.00   0.092
  S135                       3.17       0.00       0.00       2.69       0.29       0.00       0.29        0.00     0.00   0.092
  S136                       3.17       0.00       0.00       2.69       0.29       0.00       0.29        0.00     0.00   0.093
  S137                       3.17       0.00       0.00       2.22       0.89       0.00       0.89        0.01     0.00   0.280
  S138                       3.17       0.00       0.00       3.01       0.10       0.00       0.10        0.00     0.00   0.033
  S139                       3.17       0.00       0.00       1.11       1.92       0.00       1.92        0.02     0.00   0.606
  S140                       3.17       0.00       0.00       3.09       0.05       0.00       0.05        0.00     0.00   0.015
  S141                       3.17       0.00       0.00       3.01       0.10       0.00       0.10        0.00     0.00   0.033
  S142                       3.17       0.00       0.00       2.22       0.88       0.00       0.88        0.02     0.00   0.278
  S143                       3.17       0.00       0.00       2.69       0.29       0.00       0.29        0.00     0.00   0.092
  S144                       3.17       0.00       0.00       2.69       0.29       0.00       0.29        0.00     0.00   0.091
  S145                       3.17       0.00       0.00       3.01       0.11       0.00       0.11        0.00     0.00   0.034
  S146                       3.17       0.00       0.00       2.69       0.29       0.00       0.29        0.00     0.00   0.092
  S147                       3.17       0.00       0.00       2.45       0.64       0.00       0.64        0.01     0.00   0.201
  S148                       3.17       0.00       0.00       2.69       0.29       0.00       0.29        0.00     0.00   0.092
  S149                       3.17       0.00       0.00       2.45       0.65       0.00       0.65        0.00     0.00   0.207
  S150                       3.17       0.00       0.00       2.45       0.64       0.00       0.64        0.00     0.00   0.202
  S151                       3.17       0.00       0.00       2.45       0.64       0.00       0.64        0.00     0.00   0.201
  S152                       3.17       0.00       0.00       2.85       0.20       0.00       0.20        0.00     0.00   0.064
  S153                       3.17       0.00       0.00       2.69       0.29       0.00       0.29        0.00     0.00   0.092
  S154                       3.17       0.00       0.00       2.22       0.89       0.00       0.89        0.01     0.00   0.281
  S155                       3.17       0.00       0.00       2.22       0.90       0.00       0.90        0.00     0.00   0.284
  S156                       3.17       0.00       0.00       2.22       0.88       0.00       0.88        0.01     0.00   0.278
  S157                       3.17       0.00       0.00       3.09       0.05       0.00       0.05        0.00     0.00   0.015
  S158                       3.17       0.00       0.00       2.85       0.20       0.00       0.20        0.00     0.00   0.064
  S159                       3.17       0.00       0.00       2.69       0.29       0.00       0.29        0.00     0.00   0.092
  S160                       3.17       0.00       0.00       3.01       0.11       0.00       0.11        0.00     0.00   0.033
  S161                       3.17       0.00       0.00       2.45       0.65       0.00       0.65        0.00     0.00   0.204
  S162                       3.17       0.00       0.00       2.69       0.29       0.00       0.29        0.00     0.00   0.091
  S163                       3.17       0.00       0.00       2.85       0.20       0.00       0.20        0.00     0.00   0.064
  S164                       3.17       0.00       0.00       2.69       0.29       0.00       0.29        0.01     0.00   0.091
  S165                       3.17       0.00       0.00       3.01       0.10       0.00       0.10        0.00     0.00   0.033
  S166                       3.17       0.00       0.00       2.69       0.29       0.00       0.29        0.00     0.00   0.091
  S167                       3.17       0.00       0.00       2.85       0.20       0.00       0.20        0.00     0.00   0.064
  S168                       3.17       0.00       0.00       2.85       0.20       0.00       0.20        0.00     0.00   0.064
  S169                       3.17       0.00       0.00       2.45       0.63       0.00       0.63        0.01     0.00   0.199
  S170                       3.17       0.00       0.00       2.85       0.21       0.00       0.21        0.00     0.00   0.065
  S171                       3.17       0.00       0.00       2.45       0.64       0.00       0.64        0.01     0.00   0.202
  S172                       3.17       0.00       0.00       2.69       0.29       0.00       0.29        0.00     0.00   0.093
  S173                       3.17       0.00       0.00       2.69       0.29       0.00       0.29        0.00     0.00   0.092
  S174                       3.17       0.00       0.00       0.53       2.46       0.00       2.46        0.01     0.00   0.776
  S175                       3.17       0.00       0.00       2.22       0.89       0.00       0.89        0.01     0.00   0.280
  S176                       3.17       0.00       0.00       1.74       1.38       0.00       1.38        0.00     0.00   0.436
  S177                       3.17       0.00       0.00       2.85       0.20       0.00       0.20        0.00     0.00   0.064
  S178                       3.17       0.00       0.00       2.45       0.64       0.00       0.64        0.00     0.00   0.203
  S179                       3.17       0.00       0.00       3.09       0.05       0.00       0.05        0.00     0.00   0.015
  S180                       3.17       0.00       0.00       3.01       0.10       0.00       0.10        0.00     0.00   0.033
  S181                       3.17       0.00       0.00       3.01       0.10       0.00       0.10        0.00     0.00   0.033
  S182                       3.17       0.00       0.00       3.01       0.10       0.00       0.10        0.00     0.00   0.033
  S183                       3.17       0.00       0.00       2.85       0.20       0.00       0.20        0.00     0.00   0.064
  S184                       3.17       0.00       0.00       1.11       1.92       0.00       1.92        0.02     0.00   0.607
  S185                       3.17       0.00       0.00       2.22       0.88       0.00       0.88        0.01     0.00   0.278
  S186                       3.17       0.00       0.00       2.69       0.29       0.00       0.29        0.01     0.00   0.091
  S187                       3.17       0.00       0.00       2.85       0.20       0.00       0.20        0.00     0.00   0.064
  S188                       3.17       0.00       0.00       2.85       0.20       0.00       0.20        0.00     0.00   0.064
  S189                       3.17       0.00       0.00       2.85       0.20       0.00       0.20        0.00     0.00   0.064
  S190                       3.17       0.00       0.00       3.01       0.11       0.00       0.11        0.00     0.00   0.033
  S191                       3.17       0.00       0.00       2.85       0.20       0.00       0.20        0.00     0.00   0.064
  S192                       3.17       0.00       0.00       2.69       0.29       0.00       0.29        0.00     0.00   0.092
  S193                       3.17       0.00       0.00       3.01       0.11       0.00       0.11        0.00     0.00   0.034
  S194                       3.17       0.00       0.00       3.09       0.05       0.00       0.05        0.00     0.00   0.015
  S195                       3.17       0.00       0.00       2.85       0.20       0.00       0.20        0.00     0.00   0.064
  S196                       3.17       0.00       0.00       2.85       0.20       0.00       0.20        0.00     0.00   0.064
  S197                       3.17       0.00       0.00       1.74       1.38       0.00       1.38        0.02     0.00   0.434
  S198                       3.17       0.00       0.00       2.69       0.29       0.00       0.29        0.00     0.00   0.091
  S199                       3.17       0.00       0.00       2.69       0.29       0.00       0.29        0.00     0.00   0.091
  S200                       3.17       0.00       0.00       2.85       0.20       0.00       0.20        0.00     0.00   0.064
  S201                       3.17       0.00       0.00       3.01       0.10       0.00       0.10        0.00     0.00   0.033
  S202                       3.17       0.00       0.00       2.45       0.63       0.00       0.63        0.01     0.00   0.200
  S203                       3.17       0.00       0.00       2.22       0.88       0.00       0.88        0.01     0.00   0.277
  S204                       3.17       0.00       0.00       1.11       1.92       0.00       1.92        0.02     0.00   0.606
  S205                       3.17       0.00       0.00       2.69       0.29       0.00       0.29        0.00     0.00   0.092
  S206                       3.17       0.00       0.00       3.01       0.10       0.00       0.10        0.00     0.00   0.033
  S207                       3.17       0.00       0.00       3.01       0.10       0.00       0.10        0.00     0.00   0.033
  S208                       3.17       0.00       0.00       3.01       0.10       0.00       0.10        0.00     0.00   0.033
  S209                       3.17       0.00       0.00       0.53       2.47       0.00       2.47        0.01     0.00   0.780
  S210                       3.17       0.00       0.00       3.01       0.10       0.00       0.10        0.00     0.00   0.033
  S211                       3.17       0.00       0.00       0.53       2.45       0.00       2.45        0.03     0.01   0.773
  S212                       3.17       0.00       0.00       2.69       0.29       0.00       0.29        0.00     0.00   0.093
  S213                       3.17       0.00       0.00       2.85       0.20       0.00       0.20        0.00     0.00   0.064
  S214                       3.17       0.00       0.00       2.69       0.29       0.00       0.29        0.00     0.00   0.093
  S215                       3.17       0.00       0.00       1.11       1.93       0.00       1.93        0.01     0.00   0.609
  S216                       3.17       0.00       0.00       1.11       1.92       0.00       1.92        0.03     0.01   0.605
  S217                       3.17       0.00       0.00       2.85       0.20       0.00       0.20        0.00     0.00   0.064
  S218                       3.17       0.00       0.00       2.45       0.64       0.00       0.64        0.00     0.00   0.202
  S219                       3.17       0.00       0.00       2.85       0.20       0.00       0.20        0.00     0.00   0.064
  S220                       3.17       0.00       0.00       2.22       0.88       0.00       0.88        0.01     0.00   0.277
  S221                       3.17       0.00       0.00       1.74       1.38       0.00       1.38        0.01     0.00   0.437
  S222                       3.17       0.00       0.00       2.22       0.89       0.00       0.89        0.01     0.00   0.281
  S223                       3.17       0.00       0.00       3.01       0.10       0.00       0.10        0.00     0.00   0.033
  S224                       3.17       0.00       0.00       1.74       1.37       0.00       1.37        0.03     0.00   0.433
  S225                       3.17       0.00       0.00       2.85       0.20       0.00       0.20        0.00     0.00   0.064
  S226                       3.17       0.00       0.00       2.69       0.29       0.00       0.29        0.01     0.00   0.091
  S227                       3.17       0.00       0.00       3.09       0.05       0.00       0.05        0.00     0.00   0.015
  S228                       3.17       0.00       0.00       2.45       0.65       0.00       0.65        0.00     0.00   0.204
  S229                       3.17       0.00       0.00       2.45       0.63       0.00       0.63        0.01     0.00   0.200
  S230                       3.17       0.00       0.00       2.69       0.29       0.00       0.29        0.00     0.00   0.092
  S231                       3.17       0.00       0.00       2.45       0.65       0.00       0.65        0.00     0.00   0.204
  S232                       3.17       0.00       0.00       2.22       0.88       0.00       0.88        0.00     0.00   0.278
  S233                       3.17       0.00       0.00       3.01       0.10       0.00       0.10        0.00     0.00   0.033
  S234                       3.17       0.00       0.00       2.85       0.20       0.00       0.20        0.00     0.00   0.064
  S235                       3.17       0.00       0.00       2.22       0.88       0.00       0.88        0.01     0.00   0.279
  S236                       3.17       0.00       0.00       2.45       0.66       0.00       0.66        0.00     0.00   0.209
  S237                       3.17       0.00       0.00       1.74       1.40       0.00       1.40        0.00     0.00   0.441
  S238                       3.17       0.00       0.00       2.85       0.20       0.00       0.20        0.00     0.00   0.064
  S239                       3.17       0.00       0.00       2.45       0.64       0.00       0.64        0.00     0.00   0.202
  S240                       3.17       0.00       0.00       1.11       1.92       0.00       1.92        0.02     0.00   0.607
  S241                       3.17       0.00       0.00       1.74       1.38       0.00       1.38        0.01     0.00   0.436
  S242                       3.17       0.00       0.00       2.85       0.20       0.00       0.20        0.00     0.00   0.064
  S243                       3.17       0.00       0.00       2.85       0.20       0.00       0.20        0.00     0.00   0.064
  S244                       3.17       0.00       0.00       3.01       0.10       0.00       0.10        0.00     0.00   0.033
  S245                       3.17       0.00       0.00       3.01       0.10       0.00       0.10        0.00     0.00   0.033
  S246                       3.17       0.00       0.00       0.53       2.44       0.00       2.44        0.05     0.01   0.771
  S247                       3.17       0.00       0.00       2.22       0.88       0.00       0.88        0.01     0.00   0.279
  S248                       3.17       0.00       0.00       2.69       0.29       0.00       0.29        0.01     0.00   0.092
  S249                       3.17       0.00       0.00       2.85       0.20       0.00       0.20        0.00     0.00   0.064
  S250                       3.17       0.00       0.00       2.85       0.20       0.00       0.20        0.00     0.00   0.064
  S251                       3.17       0.00       0.00       2.69       0.29       0.00       0.29        0.00     0.00   0.092
  S252                       3.17       0.00       0.00       3.01       0.10       0.00       0.10        0.00     0.00   0.033
  S253                       3.17       0.00       0.00       2.22       0.88       0.00       0.88        0.01     0.00   0.277
  S254                       3.17       0.00       0.00       3.01       0.11       0.00       0.11        0.00     0.00   0.034
  S255                       3.17       0.00       0.00       1.74       1.39       0.00       1.39        0.00     0.00   0.438
  S256                       3.17       0.00       0.00       3.01       0.10       0.00       0.10        0.00     0.00   0.033
  S257                       3.17       0.00       0.00       2.69       0.29       0.00       0.29        0.01     0.00   0.090
  S258                       3.17       0.00       0.00       3.01       0.11       0.00       0.11        0.00     0.00   0.033
  S259                       3.17       0.00       0.00       2.22       0.90       0.00       0.90        0.00     0.00   0.284
  S260                       3.17       0.00       0.00       2.69       0.29       0.00       0.29        0.00     0.00   0.093
  S261                       3.17       0.00       0.00       1.74       1.37       0.00       1.37        0.02     0.00   0.433
  S262                       3.17       0.00       0.00       2.22       0.88       0.00       0.88        0.01     0.00   0.278
  S263                       3.17       0.00       0.00       3.01       0.11       0.00       0.11        0.00     0.00   0.035
  S264                       3.17       0.00       0.00       0.53       2.44       0.00       2.44        0.05     0.01   0.771
  S265                       3.17       0.00       0.00       2.85       0.20       0.00       0.20        0.00     0.00   0.064
  S266                       3.17       0.00       0.00       2.22       0.89       0.00       0.89        0.01     0.00   0.280
  S267                       3.17       0.00       0.00       2.85       0.20       0.00       0.20        0.00     0.00   0.064
  S268                       3.17       0.00       0.00       2.85       0.20       0.00       0.20        0.00     0.00   0.064
  S269                       3.17       0.00       0.00       3.01       0.11       0.00       0.11        0.00     0.00   0.034
  S270                       3.17       0.00       0.00       2.85       0.20       0.00       0.20        0.00     0.00   0.064
  S271                       3.17       0.00       0.00       1.74       1.37       0.00       1.37        0.02     0.00   0.433
  S272                       3.17       0.00       0.00       2.69       0.29       0.00       0.29        0.00     0.00   0.091
  S273                       3.17       0.00       0.00       2.85       0.20       0.00       0.20        0.00     0.00   0.064
  S274                       3.17       0.00       0.00       2.69       0.29       0.00       0.29        0.01     0.00   0.090
  S275                       3.17       0.00       0.00       2.45       0.66       0.00       0.66        0.00     0.00   0.208
  S276                       3.17       0.00       0.00       1.74       1.38       0.00       1.38        0.02     0.00   0.435
  S277                       3.17       0.00       0.00       2.69       0.29       0.00       0.29        0.01     0.00   0.091
  S278                       3.17       0.00       0.00       2.69       0.29       0.00       0.29        0.00     0.00   0.092
  S279                       3.17       0.00       0.00       2.85       0.20       0.00       0.20        0.00     0.00   0.064
  S280                       3.17       0.00       0.00       3.01       0.10       0.00       0.10        0.00     0.00   0.033
  S281                       3.17       0.00       0.00       1.11       1.95       0.00       1.95        0.00     0.00   0.617
  S282                       3.17       0.00       0.00       2.85       0.20       0.00       0.20        0.00     0.00   0.064
  S283                       3.17       0.00       0.00       0.53       2.44       0.00       2.44        0.05     0.01   0.771
  S284                       3.17       0.00       0.00       2.85       0.20       0.00       0.20        0.00     0.00   0.064
  S285                       3.17       0.00       0.00       2.85       0.20       0.00       0.20        0.00     0.00   0.064
  S286                       3.17       0.00       0.00       2.22       0.88       0.00       0.88        0.01     0.00   0.278
  S287                       3.17       0.00       0.00       2.69       0.29       0.00       0.29        0.00     0.00   0.091
  S288                       3.17       0.00       0.00       2.22       0.90       0.00       0.90        0.00     0.00   0.284
  S289                       3.17       0.00       0.00       2.85       0.20       0.00       0.20        0.00     0.00   0.064
  S290                       3.17       0.00       0.00       3.01       0.10       0.00       0.10        0.00     0.00   0.033
  S291                       3.17       0.00       0.00       3.01       0.10       0.00       0.10        0.00     0.00   0.033
  S292                       3.17       0.00       0.00       2.22       0.88       0.00       0.88        0.02     0.00   0.279
  S293                       3.17       0.00       0.00       2.69       0.29       0.00       0.29        0.00     0.00   0.091
  S294                       3.17       0.00       0.00       2.45       0.64       0.00       0.64        0.01     0.00   0.201
  S295                       3.17       0.00       0.00       0.53       2.44       0.00       2.44        0.04     0.01   0.772
  S296                       3.17       0.00       0.00       2.69       0.29       0.00       0.29        0.00     0.00   0.092
  S297                       3.17       0.00       0.00       2.69       0.29       0.00       0.29        0.00     0.00   0.092
  S298                       3.17       0.00       0.00       3.01       0.11       0.00       0.11        0.00     0.00   0.033
  S299                       3.17       0.00       0.00       2.45       0.63       0.00       0.63        0.01     0.00   0.199
  S300                       3.17       0.00       0.00       2.22       0.88       0.00       0.88        0.01     0.00   0.277
  S301                       3.17       0.00       0.00       2.22       0.91       0.00       0.91        0.00     0.00   0.288
  S302                       3.17       0.00       0.00       2.85       0.20       0.00       0.20        0.00     0.00   0.064
  S303                       3.17       0.00       0.00       3.01       0.10       0.00       0.10        0.00     0.00   0.033
  S304                       3.17       0.00       0.00       2.85       0.20       0.00       0.20        0.00     0.00   0.064
  S305                       3.17       0.00       0.00       2.85       0.20       0.00       0.20        0.00     0.00   0.064
  S306                       3.17       0.00       0.00       2.85       0.20       0.00       0.20        0.00     0.00   0.064
  S307                       3.17       0.00       0.00       2.85       0.20       0.00       0.20        0.00     0.00   0.064
  S308                       3.17       0.00       0.00       2.22       0.88       0.00       0.88        0.01     0.00   0.278
  S309                       3.17       0.00       0.00       1.74       1.39       0.00       1.39        0.00     0.00   0.439
  S310                       3.17       0.00       0.00       2.22       0.88       0.00       0.88        0.00     0.00   0.279
  S311                       3.17       0.00       0.00       2.85       0.20       0.00       0.20        0.00     0.00   0.064
  S312                       3.17       0.00       0.00       2.85       0.20       0.00       0.20        0.00     0.00   0.064
  S313                       3.17       0.00       0.00       2.22       0.88       0.00       0.88        0.01     0.00   0.279
  S314                       3.17       0.00       0.00       1.74       1.38       0.00       1.38        0.03     0.00   0.435
  S315                       3.17       0.00       0.00       2.69       0.29       0.00       0.29        0.00     0.00   0.092
  S316                       3.17       0.00       0.00       3.01       0.10       0.00       0.10        0.00     0.00   0.033
  S317                       3.17       0.00       0.00       3.01       0.10       0.00       0.10        0.00     0.00   0.033
  S318                       3.17       0.00       0.00       3.01       0.10       0.00       0.10        0.00     0.00   0.033
  S319                       3.17       0.00       0.00       1.74       1.37       0.00       1.37        0.02     0.00   0.434
  S320                       3.17       0.00       0.00       2.45       0.64       0.00       0.64        0.00     0.00   0.203
  S321                       3.17       0.00       0.00       2.69       0.29       0.00       0.29        0.00     0.00   0.092
  S322                       3.17       0.00       0.00       3.01       0.10       0.00       0.10        0.00     0.00   0.033
  S323                       3.17       0.00       0.00       2.69       0.29       0.00       0.29        0.00     0.00   0.092
  S324                       3.17       0.00       0.00       2.22       0.88       0.00       0.88        0.02     0.00   0.278
  S325                       3.17       0.00       0.00       2.85       0.20       0.00       0.20        0.00     0.00   0.064
  S326                       3.17       0.00       0.00       2.45       0.64       0.00       0.64        0.00     0.00   0.202
  S327                       3.17       0.00       0.00       2.22       0.89       0.00       0.89        0.01     0.00   0.280
  S328                       3.17       0.00       0.00       2.45       0.63       0.00       0.63        0.01     0.00   0.200
  S329                       3.17       0.00       0.00       2.22       0.89       0.00       0.89        0.01     0.00   0.280
  S330                       3.17       0.00       0.00       2.85       0.20       0.00       0.20        0.00     0.00   0.064
  S331                       3.17       0.00       0.00       2.85       0.20       0.00       0.20        0.00     0.00   0.064
  S332                       3.17       0.00       0.00       2.45       0.63       0.00       0.63        0.01     0.00   0.199
  S333                       3.17       0.00       0.00       2.22       0.88       0.00       0.88        0.01     0.00   0.277
  S334                       3.17       0.00       0.00       2.22       0.89       0.00       0.89        0.01     0.00   0.280
  S335                       3.17       0.00       0.00       3.01       0.11       0.00       0.11        0.00     0.00   0.033
  S336                       3.17       0.00       0.00       2.22       0.88       0.00       0.88        0.01     0.00   0.279
  S337                       3.17       0.00       0.00       2.85       0.20       0.00       0.20        0.00     0.00   0.064
  S338                       3.17       0.00       0.00       0.53       2.44       0.00       2.44        0.04     0.01   0.772
  S339                       3.17       0.00       0.00       2.85       0.21       0.00       0.21        0.00     0.00   0.066
  S340                       3.17       0.00       0.00       2.85       0.20       0.00       0.20        0.00     0.00   0.064
  S341                       3.17       0.00       0.00       3.01       0.11       0.00       0.11        0.00     0.00   0.034
  S342                       3.17       0.00       0.00       0.53       2.45       0.00       2.45        0.03     0.01   0.773
  S343                       3.17       0.00       0.00       2.22       0.88       0.00       0.88        0.01     0.00   0.279
  S344                       3.17       0.00       0.00       2.45       0.65       0.00       0.65        0.00     0.00   0.204
  S345                       3.17       0.00       0.00       2.85       0.20       0.00       0.20        0.00     0.00   0.064
  S346                       3.17       0.00       0.00       2.85       0.20       0.00       0.20        0.00     0.00   0.064
  S347                       3.17       0.00       0.00       2.85       0.20       0.00       0.20        0.00     0.00   0.064
  S348                       3.17       0.00       0.00       3.01       0.10       0.00       0.10        0.00     0.00   0.033
  S349                       3.17       0.00       0.00       3.09       0.05       0.00       0.05        0.00     0.00   0.015
  S350                       3.17       0.00       0.00       2.85       0.20       0.00       0.20        0.00     0.00   0.064
  S351                       3.17       0.00       0.00       2.22       0.88       0.00       0.88        0.02     0.00   0.277
  S352                       3.17       0.00       0.00       3.01       0.10       0.00       0.10        0.00     0.00   0.033
  S353                       3.17       0.00       0.00       2.69       0.29       0.00       0.29        0.01     0.00   0.091
  S354                       3.17       0.00       0.00       2.85       0.20       0.00       0.20        0.00     0.00   0.064
  S355                       3.17       0.00       0.00       2.22       0.88       0.00       0.88        0.01     0.00   0.278
  S356                       3.17       0.00       0.00       2.85       0.20       0.00       0.20        0.00     0.00   0.064
  S357                       3.17       0.00       0.00       2.85       0.20       0.00       0.20        0.00     0.00   0.064
  S358                       3.17       0.00       0.00       3.01       0.10       0.00       0.10        0.00     0.00   0.033
  S359                       3.17       0.00       0.00       2.85       0.20       0.00       0.20        0.00     0.00   0.065
  S360                       3.17       0.00       0.00       2.85       0.20       0.00       0.20        0.00     0.00   0.064
  S361                       3.17       0.00       0.00       2.85       0.20       0.00       0.20        0.00     0.00   0.064
  S362                       3.17       0.00       0.00       2.85       0.20       0.00       0.20        0.00     0.00   0.064
  S363                       3.17       0.00       0.00       2.85       0.20       0.00       0.20        0.00     0.00   0.064
  S364                       3.17       0.00       0.00       3.09       0.05       0.00       0.05        0.00     0.00   0.015
  S365                       3.17       0.00       0.00       2.85       0.20       0.00       0.20        0.00     0.00   0.064
  S366                       3.17       0.00       0.00       3.09       0.05       0.00       0.05        0.00     0.00   0.015
  S367                       3.17       0.00       0.00       2.85       0.20       0.00       0.20        0.00     0.00   0.064
  S368                       3.17       0.00       0.00       3.09       0.05       0.00       0.05        0.00     0.00   0.015
  S369                       3.17       0.00       0.00       1.11       1.92       0.00       1.92        0.03     0.01   0.605
  S370                       3.17       0.00       0.00       1.74       1.38       0.00       1.38        0.03     0.00   0.434
  S371                       3.17       0.00       0.00       2.22       0.90       0.00       0.90        0.00     0.00   0.285
  S372                       3.17       0.00       0.00       2.85       0.20       0.00       0.20        0.00     0.00   0.064
  S373                       3.17       0.00       0.00       0.53       2.44       0.00       2.44        0.04     0.01   0.771
  S374                       3.17       0.00       0.00       1.74       1.40       0.00       1.40        0.00     0.00   0.443
  S375                       3.17       0.00       0.00       2.22       0.89       0.00       0.89        0.00     0.00   0.282
  S376                       3.17       0.00       0.00       1.11       1.91       0.00       1.91        0.04     0.01   0.604
  S377                       3.17       0.00       0.00       2.85       0.20       0.00       0.20        0.00     0.00   0.064
  S378                       3.17       0.00       0.00       2.85       0.20       0.00       0.20        0.00     0.00   0.064
  S379                       3.17       0.00       0.00       2.69       0.29       0.00       0.29        0.00     0.00   0.092
  S380                       3.17       0.00       0.00       2.45       0.64       0.00       0.64        0.00     0.00   0.203
  S381                       3.17       0.00       0.00       2.85       0.20       0.00       0.20        0.00     0.00   0.064
  S382                       3.17       0.00       0.00       2.45       0.63       0.00       0.63        0.01     0.00   0.200
  S383                       3.17       0.00       0.00       2.69       0.30       0.00       0.30        0.00     0.00   0.094
  S384                       3.17       0.00       0.00       2.22       0.88       0.00       0.88        0.01     0.00   0.278
  S385                       3.17       0.00       0.00       3.01       0.11       0.00       0.11        0.00     0.00   0.034
  S386                       3.17       0.00       0.00       1.74       1.37       0.00       1.37        0.01     0.00   0.433
  S387                       3.17       0.00       0.00       2.85       0.20       0.00       0.20        0.00     0.00   0.064
  S388                       3.17       0.00       0.00       2.85       0.20       0.00       0.20        0.00     0.00   0.064
  S389                       3.17       0.00       0.00       3.01       0.10       0.00       0.10        0.00     0.00   0.033
  S390                       3.17       0.00       0.00       1.74       1.37       0.00       1.37        0.01     0.00   0.434
  S391                       3.17       0.00       0.00       3.09       0.05       0.00       0.05        0.00     0.00   0.015
  S392                       3.17       0.00       0.00       2.69       0.29       0.00       0.29        0.00     0.00   0.093
  S393                       3.17       0.00       0.00       2.85       0.20       0.00       0.20        0.00     0.00   0.064
  S394                       3.17       0.00       0.00       1.74       1.37       0.00       1.37        0.02     0.00   0.433
  S395                       3.17       0.00       0.00       0.53       2.47       0.00       2.47        0.01     0.00   0.780
  S396                       3.17       0.00       0.00       2.45       0.65       0.00       0.65        0.00     0.00   0.205
  S397                       3.17       0.00       0.00       2.69       0.29       0.00       0.29        0.00     0.00   0.091
  S398                       3.17       0.00       0.00       2.22       0.89       0.00       0.89        0.01     0.00   0.281
  S399                       3.17       0.00       0.00       2.69       0.29       0.00       0.29        0.00     0.00   0.093
  S400                       3.17       0.00       0.00       2.85       0.20       0.00       0.20        0.00     0.00   0.064
  S401                       3.17       0.00       0.00       2.22       0.88       0.00       0.88        0.01     0.00   0.277
  S402                       3.17       0.00       0.00       3.01       0.10       0.00       0.10        0.00     0.00   0.033
  S403                       3.17       0.00       0.00       1.74       1.37       0.00       1.37        0.01     0.00   0.434
  S404                       3.17       0.00       0.00       2.45       0.64       0.00       0.64        0.01     0.00   0.201
  S405                       3.17       0.00       0.00       1.74       1.38       0.00       1.38        0.01     0.00   0.436
  S406                       3.17       0.00       0.00       2.85       0.20       0.00       0.20        0.00     0.00   0.064
  S407                       3.17       0.00       0.00       2.69       0.29       0.00       0.29        0.01     0.00   0.090
  S408                       3.17       0.00       0.00       2.69       0.29       0.00       0.29        0.00     0.00   0.092
  S409                       3.17       0.00       0.00       2.85       0.20       0.00       0.20        0.00     0.00   0.064
  S410                       3.17       0.00       0.00       2.69       0.29       0.00       0.29        0.00     0.00   0.092
  S411                       3.17       0.00       0.00       2.85       0.20       0.00       0.20        0.00     0.00   0.064
  S412                       3.17       0.00       0.00       2.85       0.20       0.00       0.20        0.00     0.00   0.064
  S413                       3.17       0.00       0.00       2.85       0.20       0.00       0.20        0.00     0.00   0.064
  S414                       3.17       0.00       0.00       2.85       0.20       0.00       0.20        0.00     0.00   0.064
  S415                       3.17       0.00       0.00       2.45       0.64       0.00       0.64        0.01     0.00   0.201
  S416                       3.17       0.00       0.00       1.74       1.38       0.00       1.38        0.00     0.00   0.437
  S417                       3.17       0.00       0.00       2.22       0.88       0.00       0.88        0.01     0.00   0.277
  S418                       3.17       0.00       0.00       2.85       0.20       0.00       0.20        0.00     0.00   0.064
  S419                       3.17       0.00       0.00       2.45       0.65       0.00       0.65        0.00     0.00   0.204
  S420                       3.17       0.00       0.00       1.11       1.92       0.00       1.92        0.03     0.01   0.605
  S421                       3.17       0.00       0.00       2.45       0.63       0.00       0.63        0.00     0.00   0.200
  S422                       3.17       0.00       0.00       2.22       0.89       0.00       0.89        0.01     0.00   0.280
  S423                       3.17       0.00       0.00       2.45       0.63       0.00       0.63        0.01     0.00   0.200
  S424                       3.17       0.00       0.00       2.85       0.20       0.00       0.20        0.00     0.00   0.064
  S425                       3.17       0.00       0.00       2.85       0.20       0.00       0.20        0.00     0.00   0.064
  S426                       3.17       0.00       0.00       1.74       1.37       0.00       1.37        0.02     0.00   0.433
  S427                       3.17       0.00       0.00       2.69       0.29       0.00       0.29        0.00     0.00   0.092
  S428                       3.17       0.00       0.00       2.69       0.29       0.00       0.29        0.00     0.00   0.092
  S429                       3.17       0.00       0.00       2.69       0.29       0.00       0.29        0.00     0.00   0.092
  S430                       3.17       0.00       0.00       2.22       0.88       0.00       0.88        0.00     0.00   0.278
  S431                       3.17       0.00       0.00       2.69       0.29       0.00       0.29        0.00     0.00   0.092
  S432                       3.17       0.00       0.00       2.22       0.88       0.00       0.88        0.01     0.00   0.277
  S433                       3.17       0.00       0.00       2.69       0.29       0.00       0.29        0.00     0.00   0.092
  S434                       3.17       0.00       0.00       2.85       0.21       0.00       0.21        0.00     0.00   0.065
  S435                       3.17       0.00       0.00       1.11       1.91       0.00       1.91        0.04     0.01   0.604
  S436                       3.17       0.00       0.00       2.85       0.20       0.00       0.20        0.00     0.00   0.064
  S437                       3.17       0.00       0.00       2.85       0.20       0.00       0.20        0.00     0.00   0.064
  S438                       3.17       0.00       0.00       2.22       0.91       0.00       0.91        0.00     0.00   0.288
  S439                       3.17       0.00       0.00       1.74       1.38       0.00       1.38        0.01     0.00   0.436
  S440                       3.17       0.00       0.00       3.01       0.10       0.00       0.10        0.00     0.00   0.033
  S441                       3.17       0.00       0.00       2.22       0.88       0.00       0.88        0.01     0.00   0.279
  S442                       3.17       0.00       0.00       2.69       0.29       0.00       0.29        0.00     0.00   0.092
  S443                       3.17       0.00       0.00       2.85       0.20       0.00       0.20        0.00     0.00   0.064
  S444                       3.17       0.00       0.00       2.85       0.20       0.00       0.20        0.00     0.00   0.064
  S445                       3.17       0.00       0.00       3.01       0.11       0.00       0.11        0.00     0.00   0.033
  S446                       3.17       0.00       0.00       3.01       0.11       0.00       0.11        0.00     0.00   0.033
  S447                       3.17       0.00       0.00       3.01       0.10       0.00       0.10        0.00     0.00   0.033
  S448                       3.17       0.00       0.00       2.85       0.20       0.00       0.20        0.00     0.00   0.064
  S449                       3.17       0.00       0.00       2.85       0.20       0.00       0.20        0.00     0.00   0.064
  S450                       3.17       0.00       0.00       1.74       1.37       0.00       1.37        0.01     0.00   0.433
  S451                       3.17       0.00       0.00       3.09       0.05       0.00       0.05        0.00     0.00   0.015
  S452                       3.17       0.00       0.00       3.09       0.05       0.00       0.05        0.00     0.00   0.015
  S453                       3.17       0.00       0.00       3.01       0.10       0.00       0.10        0.00     0.00   0.033
  S454                       3.17       0.00       0.00       1.74       1.38       0.00       1.38        0.02     0.00   0.435
  S455                       3.17       0.00       0.00       1.74       1.39       0.00       1.39        0.01     0.00   0.438
  S456                       3.17       0.00       0.00       2.85       0.20       0.00       0.20        0.00     0.00   0.065
  S457                       3.17       0.00       0.00       2.85       0.20       0.00       0.20        0.00     0.00   0.064
  S458                       3.17       0.00       0.00       2.69       0.29       0.00       0.29        0.00     0.00   0.092
  S459                       3.17       0.00       0.00       3.09       0.05       0.00       0.05        0.00     0.00   0.015
  S460                       3.17       0.00       0.00       2.45       0.64       0.00       0.64        0.01     0.00   0.201
  S461                       3.17       0.00       0.00       2.85       0.20       0.00       0.20        0.00     0.00   0.064
  S462                       3.17       0.00       0.00       2.85       0.20       0.00       0.20        0.00     0.00   0.064
  S463                       3.17       0.00       0.00       2.85       0.20       0.00       0.20        0.00     0.00   0.064
  S464                       3.17       0.00       0.00       1.11       1.93       0.00       1.93        0.01     0.00   0.608
  S465                       3.17       0.00       0.00       1.74       1.40       0.00       1.40        0.00     0.00   0.442
  S466                       3.17       0.00       0.00       2.85       0.20       0.00       0.20        0.00     0.00   0.064
  S467                       3.17       0.00       0.00       3.01       0.11       0.00       0.11        0.00     0.00   0.034
  S468                       3.17       0.00       0.00       2.85       0.20       0.00       0.20        0.00     0.00   0.064
  S469                       3.17       0.00       0.00       2.85       0.20       0.00       0.20        0.00     0.00   0.064
  S470                       3.17       0.00       0.00       0.53       2.45       0.00       2.45        0.03     0.01   0.772
  S471                       3.17       0.00       0.00       3.09       0.05       0.00       0.05        0.00     0.00   0.015
  S472                       3.17       0.00       0.00       3.01       0.11       0.00       0.11        0.00     0.00   0.033
  S473                       3.17       0.00       0.00       3.09       0.05       0.00       0.05        0.00     0.00   0.015
  S474                       3.17       0.00       0.00       3.01       0.10       0.00       0.10        0.00     0.00   0.033
  S475                       3.17       0.00       0.00       1.74       1.40       0.00       1.40        0.00     0.00   0.442
  S476                       3.17       0.00       0.00       2.85       0.20       0.00       0.20        0.00     0.00   0.064
  S477                       3.17       0.00       0.00       2.45       0.63       0.00       0.63        0.01     0.00   0.199
  S478                       3.17       0.00       0.00       2.85       0.20       0.00       0.20        0.00     0.00   0.064
  S479                       3.17       0.00       0.00       2.69       0.29       0.00       0.29        0.00     0.00   0.092
  S480                       3.17       0.00       0.00       2.69       0.29       0.00       0.29        0.00     0.00   0.093
  S481                       3.17       0.00       0.00       3.01       0.10       0.00       0.10        0.00     0.00   0.033
  S482                       3.17       0.00       0.00       2.45       0.64       0.00       0.64        0.00     0.00   0.202
  S483                       3.17       0.00       0.00       1.74       1.37       0.00       1.37        0.02     0.00   0.434
  S484                       3.17       0.00       0.00       2.22       0.88       0.00       0.88        0.01     0.00   0.279
  S485                       3.17       0.00       0.00       0.53       2.47       0.00       2.47        0.01     0.00   0.781
  S486                       3.17       0.00       0.00       3.01       0.10       0.00       0.10        0.00     0.00   0.033
  S487                       3.17       0.00       0.00       2.69       0.29       0.00       0.29        0.00     0.00   0.092
  S488                       3.17       0.00       0.00       3.01       0.10       0.00       0.10        0.00     0.00   0.033
  S489                       3.17       0.00       0.00       2.45       0.63       0.00       0.63        0.01     0.00   0.200
  S490                       3.17       0.00       0.00       2.85       0.20       0.00       0.20        0.00     0.00   0.064
  S491                       3.17       0.00       0.00       3.01       0.10       0.00       0.10        0.00     0.00   0.033
  S492                       3.17       0.00       0.00       2.85       0.20       0.00       0.20        0.00     0.00   0.064
  S493                       3.17       0.00       0.00       3.01       0.11       0.00       0.11        0.00     0.00   0.033
  S494                       3.17       0.00       0.00       2.45       0.64       0.00       0.64        0.01     0.00   0.201
  S495                       3.17       0.00       0.00       3.09       0.05       0.00       0.05        0.00     0.00   0.015
  S496                       3.17       0.00       0.00       1.11       1.91       0.00       1.91        0.04     0.01   0.604
  S497                       3.17       0.00       0.00       2.45       0.63       0.00       0.63        0.01     0.00   0.200
  S498                       3.17       0.00       0.00       2.85       0.20       0.00       0.20        0.00     0.00   0.064
  S499                       3.17       0.00       0.00       3.09       0.05       0.00       0.05        0.00     0.00   0.015
  S500                       3.17       0.00       0.00       2.69       0.29       0.00       0.29        0.00     0.00   0.092
  S501                       3.17       0.00       0.00       2.85       0.20       0.00       0.20        0.00     0.00   0.064
  S502                       3.17       0.00       0.00       1.74       1.39       0.00       1.39        0.00     0.00   0.439
  S503                       3.17       0.00       0.00       2.85       0.20       0.00       0.20        0.00     0.00   0.064
  S504                       3.17       0.00       0.00       1.11       1.91       0.00       1.91        0.03     0.01   0.605
  S505                       3.17       0.00       0.00       3.09       0.05       0.00       0.05        0.00     0.00   0.015
  S506                       3.17       0.00       0.00       1.11       2.00       0.00       2.00        0.00     0.00   0.632
  S507                       3.17       0.00       0.00       2.85       0.20       0.00       0.20        0.00     0.00   0.064
  S508                       3.17       0.00       0.00       2.85       0.20       0.00       0.20        0.00     0.00   0.064
  S509                       3.17       0.00       0.00       3.01       0.10       0.00       0.10        0.00     0.00   0.033
  S510                       3.17       0.00       0.00       1.11       1.92       0.00       1.92        0.03     0.01   0.605
  S511                       3.17       0.00       0.00       2.22       0.88       0.00       0.88        0.01     0.00   0.277
  S512                       3.17       0.00       0.00       1.74       1.38       0.00       1.38        0.01     0.00   0.435
  S513                       3.17       0.00       0.00       3.01       0.10       0.00       0.10        0.00     0.00   0.033
  S514                       3.17       0.00       0.00       2.85       0.20       0.00       0.20        0.00     0.00   0.064
  S515                       3.17       0.00       0.00       2.22       0.88       0.00       0.88        0.01     0.00   0.279
  S516                       3.17       0.00       0.00       2.69       0.29       0.00       0.29        0.01     0.00   0.092
  S517                       3.17       0.00       0.00       3.01       0.11       0.00       0.11        0.00     0.00   0.034
  S518                       3.17       0.00       0.00       2.85       0.20       0.00       0.20        0.00     0.00   0.064
  S519                       3.17       0.00       0.00       1.11       1.92       0.00       1.92        0.02     0.00   0.608
  S520                       3.17       0.00       0.00       3.01       0.11       0.00       0.11        0.00     0.00   0.034
  S521                       3.17       0.00       0.00       2.69       0.29       0.00       0.29        0.00     0.00   0.092
  S522                       3.17       0.00       0.00       2.85       0.20       0.00       0.20        0.00     0.00   0.064
  S523                       3.17       0.00       0.00       3.01       0.10       0.00       0.10        0.00     0.00   0.033
  S524                       3.17       0.00       0.00       1.74       1.38       0.00       1.38        0.01     0.00   0.436
  S525                       3.17       0.00       0.00       2.85       0.20       0.00       0.20        0.00     0.00   0.064
  S526                       3.17       0.00       0.00       2.69       0.29       0.00       0.29        0.00     0.00   0.092
  S527                       3.17       0.00       0.00       2.85       0.21       0.00       0.21        0.00     0.00   0.065
  S528                       3.17       0.00       0.00       2.69       0.29       0.00       0.29        0.00     0.00   0.092
  S529                       3.17       0.00       0.00       2.85       0.20       0.00       0.20        0.00     0.00   0.064
  S530                       3.17       0.00       0.00       2.85       0.20       0.00       0.20        0.00     0.00   0.064
  S531                       3.17       0.00       0.00       2.85       0.20       0.00       0.20        0.00     0.00   0.064
  S532                       3.17       0.00       0.00       3.01       0.10       0.00       0.10        0.00     0.00   0.033
  S533                       3.17       0.00       0.00       2.85       0.20       0.00       0.20        0.00     0.00   0.064
  S534                       3.17       0.00       0.00       2.69       0.29       0.00       0.29        0.00     0.00   0.092
  S535                       3.17       0.00       0.00       1.74       1.38       0.00       1.38        0.01     0.00   0.435
  S536                       3.17       0.00       0.00       2.69       0.29       0.00       0.29        0.00     0.00   0.092
  S537                       3.17       0.00       0.00       0.53       2.44       0.00       2.44        0.04     0.01   0.772
  S538                       3.17       0.00       0.00       2.45       0.63       0.00       0.63        0.01     0.00   0.200
  S539                       3.17       0.00       0.00       2.45       0.65       0.00       0.65        0.00     0.00   0.206
  S540                       3.17       0.00       0.00       2.45       0.64       0.00       0.64        0.01     0.00   0.201
  S541                       3.17       0.00       0.00       2.85       0.20       0.00       0.20        0.00     0.00   0.064
  S542                       3.17       0.00       0.00       2.69       0.29       0.00       0.29        0.00     0.00   0.092
  S543                       3.17       0.00       0.00       2.69       0.29       0.00       0.29        0.00     0.00   0.092
  S544                       3.17       0.00       0.00       2.69       0.29       0.00       0.29        0.00     0.00   0.092
  S545                       3.17       0.00       0.00       2.85       0.20       0.00       0.20        0.00     0.00   0.064
  S546                       3.17       0.00       0.00       2.85       0.20       0.00       0.20        0.00     0.00   0.064
  S547                       3.17       0.00       0.00       2.45       0.69       0.00       0.69        0.00     0.00   0.217
  S548                       3.17       0.00       0.00       1.74       1.39       0.00       1.39        0.01     0.00   0.438
  S549                       3.17       0.00       0.00       1.74       1.37       0.00       1.37        0.01     0.00   0.433
  S550                       3.17       0.00       0.00       1.11       1.92       0.00       1.92        0.02     0.00   0.606
  S551                       3.17       0.00       0.00       2.85       0.20       0.00       0.20        0.00     0.00   0.064
  S552                       3.17       0.00       0.00       1.11       2.00       0.00       2.00        0.00     0.00   0.632
  S553                       3.17       0.00       0.00       2.69       0.29       0.00       0.29        0.00     0.00   0.092
  S554                       3.17       0.00       0.00       1.11       1.92       0.00       1.92        0.03     0.01   0.605
  S555                       3.17       0.00       0.00       2.85       0.20       0.00       0.20        0.00     0.00   0.064
  S556                       3.17       0.00       0.00       1.11       1.94       0.00       1.94        0.01     0.00   0.612
  S557                       3.17       0.00       0.00       2.69       0.29       0.00       0.29        0.00     0.00   0.091
  S558                       3.17       0.00       0.00       2.85       0.20       0.00       0.20        0.00     0.00   0.064
  S559                       3.17       0.00       0.00       2.45       0.68       0.00       0.68        0.00     0.00   0.214
  S560                       3.17       0.00       0.00       2.69       0.29       0.00       0.29        0.00     0.00   0.091
  S561                       3.17       0.00       0.00       3.01       0.10       0.00       0.10        0.00     0.00   0.033
  S562                       3.17       0.00       0.00       3.01       0.11       0.00       0.11        0.00     0.00   0.033
  S563                       3.17       0.00       0.00       2.45       0.63       0.00       0.63        0.01     0.00   0.200
  S564                       3.17       0.00       0.00       2.85       0.20       0.00       0.20        0.00     0.00   0.064
  S565                       3.17       0.00       0.00       3.01       0.11       0.00       0.11        0.00     0.00   0.034
  S566                       3.17       0.00       0.00       2.85       0.21       0.00       0.21        0.00     0.00   0.065
  S567                       3.17       0.00       0.00       3.09       0.05       0.00       0.05        0.00     0.00   0.015
  S568                       3.17       0.00       0.00       3.01       0.11       0.00       0.11        0.00     0.00   0.033
  S569                       3.17       0.00       0.00       2.69       0.29       0.00       0.29        0.00     0.00   0.091
  S570                       3.17       0.00       0.00       3.09       0.05       0.00       0.05        0.00     0.00   0.015
  S571                       3.17       0.00       0.00       3.01       0.11       0.00       0.11        0.00     0.00   0.033
  S572                       3.17       0.00       0.00       2.45       0.64       0.00       0.64        0.00     0.00   0.203
  S573                       3.17       0.00       0.00       1.74       1.37       0.00       1.37        0.01     0.00   0.434
  S574                       3.17       0.00       0.00       1.74       1.37       0.00       1.37        0.01     0.00   0.434
  S575                       3.17       0.00       0.00       1.11       1.92       0.00       1.92        0.03     0.01   0.605
  S576                       3.17       0.00       0.00       1.74       1.38       0.00       1.38        0.01     0.00   0.435
  S577                       3.17       0.00       0.00       2.22       0.90       0.00       0.90        0.00     0.00   0.284
  S578                       3.17       0.00       0.00       0.53       2.48       0.00       2.48        0.00     0.00   0.784
  S579                       3.17       0.00       0.00       2.85       0.20       0.00       0.20        0.00     0.00   0.064
  S580                       3.17       0.00       0.00       1.74       1.37       0.00       1.37        0.02     0.00   0.434
  S581                       3.17       0.00       0.00       2.85       0.20       0.00       0.20        0.00     0.00   0.064
  S582                       3.17       0.00       0.00       3.01       0.11       0.00       0.11        0.00     0.00   0.034
  S583                       3.17       0.00       0.00       0.53       2.49       0.00       2.49        0.00     0.00   0.787
  S584                       3.17       0.00       0.00       3.01       0.10       0.00       0.10        0.00     0.00   0.033
  S585                       3.17       0.00       0.00       0.53       2.45       0.00       2.45        0.03     0.00   0.773
  S586                       3.17       0.00       0.00       2.85       0.21       0.00       0.21        0.00     0.00   0.065
  S587                       3.17       0.00       0.00       2.85       0.20       0.00       0.20        0.00     0.00   0.064
  S588                       3.17       0.00       0.00       2.85       0.20       0.00       0.20        0.00     0.00   0.064
  S589                       3.17       0.00       0.00       3.09       0.05       0.00       0.05        0.00     0.00   0.015
  S590                       3.17       0.00       0.00       1.74       1.40       0.00       1.40        0.00     0.00   0.442
  S591                       3.17       0.00       0.00       2.85       0.20       0.00       0.20        0.00     0.00   0.064
  S592                       3.17       0.00       0.00       2.69       0.29       0.00       0.29        0.01     0.00   0.090
  S593                       3.17       0.00       0.00       2.45       0.63       0.00       0.63        0.00     0.00   0.200
  S594                       3.17       0.00       0.00       3.01       0.10       0.00       0.10        0.00     0.00   0.033
  S595                       3.17       0.00       0.00       3.09       0.05       0.00       0.05        0.00     0.00   0.015
  S596                       3.17       0.00       0.00       2.22       0.88       0.00       0.88        0.01     0.00   0.278
[...]
  S848                       3.17       0.00       0.00       2.85       0.20       0.00       0.20        0.00     0.00   0.064
  S849                       3.17       0.00       0.00       1.74       1.38       0.00       1.38        0.02     0.00   0.436
  S850                       3.17       0.00       0.00       3.01       0.11       0.00       0.11        0.00     0.00   0.033
  S851                       3.17       0.00       0.00       2.85       0.20       0.00       0.20        0.00     0.00   0.064
  S852                       3.17       0.00       0.00       2.69       0.29       0.00       0.29        0.00     0.00   0.091
  S853                       3.17       0.00       0.00       2.45       0.63       0.00       0.63        0.00     0.00   0.200
  S854                       3.17       0.00       0.00       2.85       0.20       0.00       0.20        0.00     0.00   0.064
  S855                       3.17       0.00       0.00       3.01       0.10       0.00       0.10        0.00     0.00   0.033
  S856                       3.17       0.00       0.00       2.22       0.88       0.00       0.88        0.01     0.00   0.279
  S857                       3.17       0.00       0.00       2.22       0.88       0.00       0.88        0.01     0.00   0.277
  S858                       3.17       0.00       0.00       1.74       1.38       0.00       1.38        0.00     0.00   0.436
  S859                       3.17       0.00       0.00       2.45       0.64       0.00       0.64        0.00     0.00   0.203
  S860                       3.17       0.00       0.00       1.11       1.91       0.00       1.91        0.04     0.01   0.604
  S861                       3.17       0.00       0.00       2.45       0.64       0.00       0.64        0.01     0.00   0.201
  S862                       3.17       0.00       0.00       3.01       0.10       0.00       0.10        0.00     0.00   0.033
  S863                       3.17       0.00       0.00       1.74       1.38       0.00       1.38        0.02     0.00   0.435
  S864                       3.17       0.00       0.00       2.85       0.20       0.00       0.20        0.00     0.00   0.064
  S865                       3.17       0.00       0.00       1.74       1.39       0.00       1.39        0.00     0.00   0.437
  S866                       3.17       0.00       0.00       2.85       0.20       0.00       0.20        0.00     0.00   0.064
  S867                       3.17       0.00       0.00       1.11       1.92       0.00       1.92        0.02     0.00   0.607
  S868                       3.17       0.00       0.00       1.74       1.37       0.00       1.37        0.02     0.00   0.434
  S869                       3.17       0.00       0.00       1.11       1.92       0.00       1.92        0.03     0.01   0.605
  S870                       3.17       0.00       0.00       3.01       0.10       0.00       0.10        0.00     0.00   0.033
  S871                       3.17       0.00       0.00       3.09       0.05       0.00       0.05        0.00     0.00   0.015
  S872                       3.17       0.00       0.00       2.85       0.21       0.00       0.21        0.00     0.00   0.065
  S873                       3.17       0.00       0.00       2.85       0.20       0.00       0.20        0.00     0.00   0.064
  S874                       3.17       0.00       0.00       2.85       0.20       0.00       0.20        0.00     0.00   0.064
  S875                       3.17       0.00       0.00       2.69       0.29       0.00       0.29        0.00     0.00   0.092
  S876                       3.17       0.00       0.00       1.74       1.38       0.00       1.38        0.01     0.00   0.437
  S877                       3.17       0.00       0.00       2.85       0.20       0.00       0.20        0.00     0.00   0.064
  S878                       3.17       0.00       0.00       2.45       0.64       0.00       0.64        0.01     0.00   0.202
  S879                       3.17       0.00       0.00       1.74       1.38       0.00       1.38        0.02     0.00   0.435
  S880                       3.17       0.00       0.00       2.22       0.88       0.00       0.88        0.00     0.00   0.278
  S881                       3.17       0.00       0.00       2.45       0.64       0.00       0.64        0.00     0.00   0.201
  S882                       3.17       0.00       0.00       2.45       0.63       0.00       0.63        0.01     0.00   0.200
  S883                       3.17       0.00       0.00       2.85       0.20       0.00       0.20        0.00     0.00   0.064
  S884                       3.17       0.00       0.00       2.45       0.63       0.00       0.63        0.01     0.00   0.200
  S885                       3.17       0.00       0.00       2.85       0.20       0.00       0.20        0.00     0.00   0.064
  S886                       3.17       0.00       0.00       0.53       2.47       0.00       2.47        0.01     0.00   0.778
  S887                       3.17       0.00       0.00       3.01       0.10       0.00       0.10        0.00     0.00   0.033
  S888                       3.17       0.00       0.00       2.85       0.20       0.00       0.20        0.00     0.00   0.064
  S889                       3.17       0.00       0.00       1.11       1.96       0.00       1.96        0.00     0.00   0.620
  S890                       3.17       0.00       0.00       1.74       1.38       0.00       1.38        0.03     0.00   0.435
  S891                       3.17       0.00       0.00       2.69       0.29       0.00       0.29        0.00     0.00   0.093
  S892                       3.17       0.00       0.00       3.01       0.10       0.00       0.10        0.00     0.00   0.033
  S893                       3.17       0.00       0.00       1.74       1.38       0.00       1.38        0.03     0.00   0.435
  S894                       3.17       0.00       0.00       2.45       0.64       0.00       0.64        0.01     0.00   0.201
  S895                       3.17       0.00       0.00       3.09       0.05       0.00       0.05        0.00     0.00   0.015
  S896                       3.17       0.00       0.00       2.85       0.20       0.00       0.20        0.00     0.00   0.064
  S897                       3.17       0.00       0.00       1.74       1.37       0.00       1.37        0.02     0.00   0.433
  S898                       3.17       0.00       0.00       2.69       0.29       0.00       0.29        0.00     0.00   0.091
  S899                       3.17       0.00       0.00       3.01       0.10       0.00       0.10        0.00     0.00   0.033
  S900                       3.17       0.00       0.00       3.09       0.05       0.00       0.05        0.00     0.00   0.015
  S901                       3.17       0.00       0.00       2.45       0.63       0.00       0.63        0.01     0.00   0.200
  S902                       3.17       0.00       0.00       2.85       0.20       0.00       0.20        0.00     0.00   0.064
  S903                       3.17       0.00       0.00       2.45       0.64       0.00       0.64        0.01     0.00   0.202
  S904                       3.17       0.00       0.00       0.53       2.45       0.00       2.45        0.02     0.00   0.774
  S905                       3.17       0.00       0.00       2.45       0.64       0.00       0.64        0.01     0.00   0.201
  S906                       3.17       0.00       0.00       2.85       0.20       0.00       0.20        0.00     0.00   0.064
  S907                       3.17       0.00       0.00       1.11       1.93       0.00       1.93        0.01     0.00   0.609
  S908                       3.17       0.00       0.00       1.74       1.39       0.00       1.39        0.00     0.00   0.439
  S909                       3.17       0.00       0.00       2.85       0.20       0.00       0.20        0.00     0.00   0.064
  S910                       3.17       0.00       0.00       2.22       0.89       0.00       0.89        0.01     0.00   0.280
  S911                       3.17       0.00       0.00       2.69       0.29       0.00       0.29        0.00     0.00   0.092
  S912                       3.17       0.00       0.00       3.09       0.05       0.00       0.05        0.00     0.00   0.015
  S913                       3.17       0.00       0.00       2.69       0.29       0.00       0.29        0.00     0.00   0.092
  S914                       3.17       0.00       0.00       2.45       0.63       0.00       0.63        0.01     0.00   0.200
  S915                       3.17       0.00       0.00       3.01       0.11       0.00       0.11        0.00     0.00   0.036
  S916                       3.17       0.00       0.00       3.01       0.11       0.00       0.11        0.00     0.00   0.034
  S917                       3.17       0.00       0.00       2.85       0.20       0.00       0.20        0.00     0.00   0.064
  S918                       3.17       0.00       0.00       3.01       0.11       0.00       0.11        0.00     0.00   0.035
  S919                       3.17       0.00       0.00       2.69       0.29       0.00       0.29        0.00     0.00   0.091
  S920                       3.17       0.00       0.00       1.11       1.92       0.00       1.92        0.03     0.01   0.605
  S921                       3.17       0.00       0.00       3.09       0.05       0.00       0.05        0.00     0.00   0.015
  S922                       3.17       0.00       0.00       1.74       1.38       0.00       1.38        0.02     0.00   0.435
  S923                       3.17       0.00       0.00       2.85       0.20       0.00       0.20        0.00     0.00   0.064
  S924                       3.17       0.00       0.00       2.45       0.64       0.00       0.64        0.01     0.00   0.201
  S925                       3.17       0.00       0.00       2.85       0.20       0.00       0.20        0.00     0.00   0.064
  S926                       3.17       0.00       0.00       2.69       0.29       0.00       0.29        0.00     0.00   0.092
  S927                       3.17       0.00       0.00       1.11       1.93       0.00       1.93        0.01     0.00   0.608
  S928                       3.17       0.00       0.00       1.74       1.37       0.00       1.37        0.02     0.00   0.434
  S929                       3.17       0.00       0.00       3.01       0.10       0.00       0.10        0.00     0.00   0.033
  S930                       3.17       0.00       0.00       2.69       0.29       0.00       0.29        0.00     0.00   0.092
  S931                       3.17       0.00       0.00       3.09       0.05       0.00       0.05        0.00     0.00   0.015
  S932                       3.17       0.00       0.00       3.09       0.05       0.00       0.05        0.00     0.00   0.015
  S933                       3.17       0.00       0.00       2.85       0.20       0.00       0.20        0.00     0.00   0.064
  S934                       3.17       0.00       0.00       2.22       0.88       0.00       0.88        0.01     0.00   0.278
  S935                       3.17       0.00       0.00       2.22       0.88       0.00       0.88        0.01     0.00   0.279
  S936                       3.17       0.00       0.00       1.74       1.37       0.00       1.37        0.01     0.00   0.433
  S937                       3.17       0.00       0.00       1.74       1.40       0.00       1.40        0.00     0.00   0.443
  S938                       3.17       0.00       0.00       2.22       0.88       0.00       0.88        0.01     0.00   0.277
  S939                       3.17       0.00       0.00       2.85       0.20       0.00       0.20        0.00     0.00   0.064
  S940                       3.17       0.00       0.00       2.69       0.29       0.00       0.29        0.00     0.00   0.092
  S941                       3.17       0.00       0.00       2.45       0.64       0.00       0.64        0.00     0.00   0.201
  S942                       3.17       0.00       0.00       2.85       0.20       0.00       0.20        0.00     0.00   0.064
  S943                       3.17       0.00       0.00       1.11       1.91       0.00       1.91        0.04     0.01   0.604
  S944                       3.17       0.00       0.00       1.74       1.37       0.00       1.37        0.03     0.00   0.433
  S945                       3.17       0.00       0.00       2.45       0.63       0.00       0.63        0.01     0.00   0.199
  S946                       3.17       0.00       0.00       1.74       1.37       0.00       1.37        0.02     0.00   0.433
  S947                       3.17       0.00       0.00       3.09       0.05       0.00       0.05        0.00     0.00   0.015
  S948                       3.17       0.00       0.00       1.74       1.37       0.00       1.37        0.01     0.00   0.434
  S949                       3.17       0.00       0.00       2.85       0.20       0.00       0.20        0.00     0.00   0.064
  S950                       3.17       0.00       0.00       3.01       0.11       0.00       0.11        0.00     0.00   0.033
  S951                       3.17       0.00       0.00       3.01       0.10       0.00       0.10        0.00     0.00   0.033
  S952                       3.17       0.00       0.00       3.01       0.10       0.00       0.10        0.00     0.00   0.033
  S953                       3.17       0.00       0.00       3.09       0.05       0.00       0.05        0.00     0.00   0.015
  S954                       3.17       0.00       0.00       2.45       0.64       0.00       0.64        0.01     0.00   0.201
  S955                       3.17       0.00       0.00       1.74       1.37       0.00       1.37        0.02     0.00   0.434
  S956                       3.17       0.00       0.00       3.01       0.10       0.00       0.10        0.00     0.00   0.033
  S957                       3.17       0.00       0.00       2.45       0.65       0.00       0.65        0.00     0.00   0.206
  S958                       3.17       0.00       0.00       1.11       1.91       0.00       1.91        0.03     0.01   0.605
  S959                       3.17       0.00       0.00       0.53       2.45       0.00       2.45        0.02     0.00   0.775
  S960                       3.17       0.00       0.00       3.01       0.10       0.00       0.10        0.00     0.00   0.033
  S961                       3.17       0.00       0.00       2.22       0.88       0.00       0.88        0.02     0.00   0.279
  S962                       3.17       0.00       0.00       3.01       0.11       0.00       0.11        0.00     0.00   0.033
  S963                       3.17       0.00       0.00       2.85       0.20       0.00       0.20        0.00     0.00   0.064
  S964                       3.17       0.00       0.00       2.85       0.20       0.00       0.20        0.00     0.00   0.064
  S965                       3.17       0.00       0.00       3.01       0.10       0.00       0.10        0.00     0.00   0.033
  S966                       3.17       0.00       0.00       2.69       0.29       0.00       0.29        0.00     0.00   0.092
  S967                       3.17       0.00       0.00       2.45       0.63       0.00       0.63        0.01     0.00   0.200
  S968                       3.17       0.00       0.00       2.69       0.29       0.00       0.29        0.00     0.00   0.091
  S969                       3.17       0.00       0.00       2.85       0.20       0.00       0.20        0.00     0.00   0.064
  S970                       3.17       0.00       0.00       0.53       2.52       0.00       2.52        0.00     0.00   0.796
  S971                       3.17       0.00       0.00       3.01       0.11       0.00       0.11        0.00     0.00   0.033
  S972                       3.17       0.00       0.00       0.53       2.45       0.00       2.45        0.03     0.01   0.773
  S973                       3.17       0.00       0.00       2.85       0.20       0.00       0.20        0.00     0.00   0.064
  S974                       3.17       0.00       0.00       3.01       0.11       0.00       0.11        0.00     0.00   0.035
  S975                       3.17       0.00       0.00       1.74       1.39       0.00       1.39        0.01     0.00   0.439
  S976                       3.17       0.00       0.00       2.85       0.20       0.00       0.20        0.00     0.00   0.064
  S977                       3.17       0.00       0.00       3.09       0.05       0.00       0.05        0.00     0.00   0.015
  S978                       3.17       0.00       0.00       1.11       1.91       0.00       1.91        0.03     0.01   0.605
  S979                       3.17       0.00       0.00       2.45       0.63       0.00       0.63        0.01     0.00   0.200
  S980                       3.17       0.00       0.00       3.01       0.10       0.00       0.10        0.00     0.00   0.033
  S981                       3.17       0.00       0.00       3.01       0.11       0.00       0.11        0.00     0.00   0.033
  S982                       3.17       0.00       0.00       1.74       1.38       0.00       1.38        0.02     0.00   0.434
  S983                       3.17       0.00       0.00       2.85       0.20       0.00       0.20        0.00     0.00   0.064
  S984                       3.17       0.00       0.00       2.45       0.64       0.00       0.64        0.01     0.00   0.201
  S985                       3.17       0.00       0.00       3.09       0.05       0.00       0.05        0.00     0.00   0.015
  S986                       3.17       0.00       0.00       2.85       0.20       0.00       0.20        0.00     0.00   0.064
  S987                       3.17       0.00       0.00       2.45       0.64       0.00       0.64        0.00     0.00   0.203
  S988                       3.17       0.00       0.00       2.69       0.29       0.00       0.29        0.00     0.00   0.090
  S989                       3.17       0.00       0.00       3.01       0.10       0.00       0.10        0.00     0.00   0.033
  S990                       3.17       0.00       0.00       1.74       1.39       0.00       1.39        0.00     0.00   0.440
  S991                       3.17       0.00       0.00       2.69       0.29       0.00       0.29        0.00     0.00   0.093
  S992                       3.17       0.00       0.00       0.53       2.44       0.00       2.44        0.05     0.01   0.771
  S993                       3.17       0.00       0.00       2.85       0.20       0.00       0.20        0.00     0.00   0.064
  S994                       3.17       0.00       0.00       2.22       0.88       0.00       0.88        0.00     0.00   0.279
  S995                       3.17       0.00       0.00       2.85       0.20       0.00       0.20        0.00     0.00   0.064
  S996                       3.17       0.00       0.00       3.01       0.10       0.00       0.10        0.00     0.00   0.033
  S997                       3.17       0.00       0.00       2.85       0.20       0.00       0.20        0.00     0.00   0.064
  S998                       3.17       0.00       0.00       1.11       2.02       0.00       2.02        0.00     0.00   0.637
  S999                       3.17       0.00       0.00       2.22       0.89       0.00       0.89        0.01     0.00   0.280
  S1000                      3.17       0.00       0.00       2.85       0.20       0.00       0.20        0.00     0.00   0.064
  S1001                      3.17       0.00       0.00       0.53       2.48       0.00       2.48        0.01     0.00   0.782
  

  Analysis begun on:  Wed Jul  5 06:53:46 2023
  Analysis ended on:  Wed Jul  5 06:53:47 2023
  Total elapsed time: 00:00:01