
  OWA STORM WATER MANAGEMENT MODEL - VERSION v5.2.3 (OWA 2023-03-28)
  ------------------------------------------------------------

  WARNING 09: time series interval greater than recording interval for Rain Gage Raingage2
  WARNING 01: wet weather time step reduced to recording interval for Rain Gage Raingage2
  
  ****************
  Analysis Options
  ****************
  Flow Units ............... CMS
  Process Models:
    Rainfall/Runoff ........ YES
    RDII ................... NO
    Snowmelt ............... NO
    Groundwater ............ NO
    Flow Routing ........... NO
    Water Quality .......... NO
  Infiltration Method ...... MODIFIED_GREEN_AMPT
  Starting Date ............ 06/17/2022 00:00:00
  Ending Date .............. 06/17/2022 12:00:00
  Antecedent Dry Days ...... 0.0
  Report Time Step ......... 00:15:00
  Wet Time Step ............ 00:01:00
  Dry Time Step ............ 01:00:00
  
  
  **************************        Volume         Depth
  Runoff Quantity Continuity     hectare-m            mm
  **************************     ---------       -------
  Total Precipitation ......         1.595         1.583
  Evaporation Loss .........         0.000         0.000
  Infiltration Loss ........         1.226         1.217
  Surface Runoff ...........         0.266         0.264
  Final Storage ............         0.105         0.104
  Continuity Error (%) .....        -0.094
  
  
  **************************        Volume        Volume
  Flow Routing Continuity        hectare-m      10^6 ltr
  **************************     ---------     ---------
  Dry Weather Inflow .......         0.000         0.000
  Wet Weather Inflow .......         0.266         2.657
  Groundwater Inflow .......         0.000         0.000
  RDII Inflow ..............         0.000         0.000
  External Inflow ..........         0.000         0.000
  External Outflow .........         0.266         2.657
  Flooding Loss ............         0.000         0.000
  Evaporation Loss .........         0.000         0.000
  Exfiltration Loss ........         0.000         0.000
  Initial Stored Volume ....         0.000         0.000
  Final Stored Volume ......         0.000         0.000
  Continuity Error (%) .....         0.000
  
  
  ***************************
  Subcatchment Runoff Summary
  ***************************
  
  ------------------------------------------------------------------------------------------------------------------------------
                            Total      Total      Total      Total     Imperv       Perv      Total       Total     Peak  Runoff
                           Precip      Runon       Evap      Infil     Runoff     Runoff     Runoff      Runoff   Runoff   Coeff
  Subcatchment                 mm         mm         mm         mm         mm         mm         mm    10^6 ltr      CMS
  ------------------------------------------------------------------------------------------------------------------------------
  S1                         1.58       0.00       0.00       1.27       0.24       0.00       0.24        0.00     0.00   0.152
  S2                         1.58       0.00       0.00       0.87       0.66       0.00       0.66        0.01     0.00   0.414
  S3                         1.58       0.00       0.00       1.50       0.02       0.00       0.02        0.00     0.00   0.014
  S4                         1.58       0.00       0.00       1.35       0.06       0.00       0.06        0.00     0.00   0.035
  S5                         1.58       0.00       0.00       1.23       0.27       0.00       0.27        0.00     0.00   0.173
  S6                         1.58       0.00       0.00       1.43       0.04       0.00       0.04        0.00     0.00   0.028
  S7                         1.58       0.00       0.00       1.50       0.02       0.00       0.02        0.00     0.00   0.014
  S8                         1.58       0.00       0.00       1.35       0.05       0.00       0.05        0.00     0.00   0.035
  S9                         1.58       0.00       0.00       0.87       0.66       0.00       0.66        0.01     0.00   0.415
  S10                        1.58       0.00       0.00       0.87       0.66       0.00       0.66        0.01     0.00   0.415
  S11                        1.58       0.00       0.00       1.11       0.40       0.00       0.40        0.00     0.00   0.252
  S12                        1.58       0.00       0.00       1.50       0.02       0.00       0.02        0.00     0.00   0.015
  S13                        1.58       0.00       0.00       1.43       0.04       0.00       0.04        0.00     0.00   0.028
  S14                        1.58       0.00       0.00       1.55       0.01       0.00       0.01        0.00     0.00   0.006
  S15                        1.58       0.00       0.00       0.87       0.66       0.00       0.66        0.01     0.00   0.414
  S16                        1.58       0.00       0.00       1.11       0.40       0.00       0.40        0.01     0.00   0.253
  S17                        1.58       0.00       0.00       1.35       0.06       0.00       0.06        0.00     0.00   0.035
  S18                        1.58       0.00       0.00       1.50       0.02       0.00       0.02        0.00     0.00   0.014
  S19                        1.58       0.00       0.00       1.23       0.27       0.00       0.27        0.00     0.00   0.172
  S20                        1.58       0.00       0.00       0.87       0.66       0.00       0.66        0.00     0.00   0.416
  S21                        1.58       0.00       0.00       1.43       0.04       0.00       0.04        0.00     0.00   0.028
  S22                        1.58       0.00       0.00       1.42       0.04       0.00       0.04        0.00     0.00   0.027
  S23                        1.58       0.00       0.00       1.23       0.27       0.00       0.27        0.00     0.00   0.172
  S24                        1.58       0.00       0.00       0.55       0.87       0.00       0.87        0.00     0.00   0.552
  S25                        1.58       0.00       0.00       1.23       0.29       0.00       0.29        0.00     0.00   0.182
  S26                        1.58       0.00       0.00       1.11       0.40       0.00       0.40        0.00     0.00   0.255
  S27                        1.58       0.00       0.00       1.11       0.40       0.00       0.40        0.01     0.00   0.253
  S28                        1.58       0.00       0.00       1.35       0.05       0.00       0.05        0.00     0.00   0.034
  S29                        1.58       0.00       0.00       1.50       0.02       0.00       0.02        0.00     0.00   0.014
  S30                        1.58       0.00       0.00       0.87       0.66       0.00       0.66        0.01     0.00   0.415
  S31                        1.58       0.00       0.00       0.87       0.67       0.00       0.67        0.00     0.00   0.423
  S32                        1.58       0.00       0.00       1.43       0.04       0.00       0.04        0.00     0.00   0.028
  S33                        1.58       0.00       0.00       0.87       0.66       0.00       0.66        0.00     0.00   0.415
  S34                        1.58       0.00       0.00       1.43       0.04       0.00       0.04        0.00     0.00   0.028
  S35                        1.58       0.00       0.00       0.55       0.87       0.00       0.87        0.02     0.00   0.549
  S36                        1.58       0.00       0.00       1.23       0.27       0.00       0.27        0.00     0.00   0.172
  S37                        1.58       0.00       0.00       1.35       0.05       0.00       0.05        0.00     0.00   0.033
  S38                        1.58       0.00       0.00       1.35       0.05       0.00       0.05        0.00     0.00   0.033
  S39                        1.58       0.00       0.00       1.55       0.01       0.00       0.01        0.00     0.00   0.006
  S40                        1.58       0.00       0.00       0.87       0.66       0.00       0.66        0.01     0.00   0.416
  S41                        1.58       0.00       0.00       1.43       0.04       0.00       0.04        0.00     0.00   0.027
  S42                        1.58       0.00       0.00       0.55       0.87       0.00       0.87        0.01     0.00   0.549
  S43                        1.58       0.00       0.00       0.87       0.65       0.00       0.65        0.01     0.00   0.413
  S44                        1.58       0.00       0.00       1.35       0.05       0.00       0.05        0.00     0.00   0.034
  S45                        1.58       0.00       0.00       1.11       0.40       0.00       0.40        0.00     0.00   0.254
  S46                        1.58       0.00       0.00       1.35       0.05       0.00       0.05        0.00     0.00   0.034
  S47                        1.58       0.00       0.00       1.23       0.27       0.00       0.27        0.01     0.00   0.172
  S48                        1.58       0.00       0.00       1.50       0.02       0.00       0.02        0.00     0.00   0.014
  S49                        1.58       0.00       0.00       0.87       0.66       0.00       0.66        0.01     0.00   0.415
  S50                        1.58       0.00       0.00       1.23       0.27       0.00       0.27        0.01     0.00   0.172
  S51                        1.58       0.00       0.00       0.55       0.87       0.00       0.87        0.01     0.00   0.550
  S52                        1.58       0.00       0.00       1.43       0.04       0.00       0.04        0.00     0.00   0.028
  S53                        1.58       0.00       0.00       1.55       0.01       0.00       0.01        0.00     0.00   0.007
  S54                        1.58       0.00       0.00       1.11       0.40       0.00       0.40        0.00     0.00   0.255
  S55                        1.58       0.00       0.00       1.50       0.02       0.00       0.02        0.00     0.00   0.014
  S56                        1.58       0.00       0.00       1.35       0.06       0.00       0.06        0.00     0.00   0.036
  S57                        1.58       0.00       0.00       1.43       0.04       0.00       0.04        0.00     0.00   0.028
  S58                        1.58       0.00       0.00       1.23       0.27       0.00       0.27        0.00     0.00   0.172
  S59                        1.58       0.00       0.00       1.43       0.04       0.00       0.04        0.00     0.00   0.028
  S60                        1.58       0.00       0.00       1.55       0.01       0.00       0.01        0.00     0.00   0.007
  S61                        1.58       0.00       0.00       1.35       0.05       0.00       0.05        0.00     0.00   0.034
  S62                        1.58       0.00       0.00       1.35       0.06       0.00       0.06        0.00     0.00   0.035
  S63                        1.58       0.00       0.00       1.23       0.29       0.00       0.29        0.00     0.00   0.180
  S64                        1.58       0.00       0.00       1.43       0.04       0.00       0.04        0.00     0.00   0.028
  S65                        1.58       0.00       0.00       1.55       0.01       0.00       0.01        0.00     0.00   0.007
  S66                        1.58       0.00       0.00       1.43       0.04       0.00       0.04        0.00     0.00   0.028
  S67                        1.58       0.00       0.00       1.11       0.40       0.00       0.40        0.01     0.00   0.253
  S68                        1.58       0.00       0.00       1.43       0.04       0.00       0.04        0.00     0.00   0.028
  S69                        1.58       0.00       0.00       0.87       0.66       0.00       0.66        0.01     0.00   0.414
  S70                        1.58       0.00       0.00       0.55       0.87       0.00       0.87        0.01     0.00   0.549
  S71                        1.58       0.00       0.00       1.35       0.05       0.00       0.05        0.00     0.00   0.033
  S72                        1.58       0.00       0.00       0.87       0.66       0.00       0.66        0.00     0.00   0.419
  S73                        1.58       0.00       0.00       1.50       0.02       0.00       0.02        0.00     0.00   0.014
  S74                        1.58       0.00       0.00       0.26       1.12       0.00       1.12        0.00     0.00   0.706
  S75                        1.58       0.00       0.00       0.87       0.66       0.00       0.66        0.00     0.00   0.416
  S76                        1.58       0.00       0.00       0.26       1.11       0.00       1.11        0.02     0.00   0.702
  S77                        1.58       0.00       0.00       1.35       0.06       0.00       0.06        0.00     0.00   0.035
  S78                        1.58       0.00       0.00       1.35       0.05       0.00       0.05        0.00     0.00   0.034
  S79                        1.58       0.00       0.00       0.87       0.66       0.00       0.66        0.00     0.00   0.418
  S80                        1.58       0.00       0.00       1.35       0.05       0.00       0.05        0.00     0.00   0.034
  S81                        1.58       0.00       0.00       1.43       0.04       0.00       0.04        0.00     0.00   0.028
  S82                        1.58       0.00       0.00       1.23       0.27       0.00       0.27        0.00     0.00   0.172
  S83                        1.58       0.00       0.00       0.55       0.87       0.00       0.87        0.01     0.00   0.550
  S84                        1.58       0.00       0.00       0.87       0.66       0.00       0.66        0.00     0.00   0.416
  S85                        1.58       0.00       0.00       0.26       1.11       0.00       1.11        0.01     0.00   0.704
  S86                        1.58       0.00       0.00       1.50       0.02       0.00       0.02        0.00     0.00   0.014
  S87                        1.58       0.00       0.00       1.11       0.40       0.00       0.40        0.01     0.00   0.253
  S88                        1.58       0.00       0.00       1.50       0.02       0.00       0.02        0.00     0.00   0.014
  S89                        1.58       0.00       0.00       1.23       0.27       0.00       0.27        0.01     0.00   0.171
  S90                        1.58       0.00       0.00       1.42       0.04       0.00       0.04        0.00     0.00   0.027
  S91                        1.58       0.00       0.00       1.43       0.04       0.00       0.04        0.00     0.00   0.028
  S92                        1.58       0.00       0.00       1.50       0.02       0.00       0.02        0.00     0.00   0.014
  S93                        1.58       0.00       0.00       0.26       1.13       0.00       1.13        0.00     0.00   0.711
  S94                        1.58       0.00       0.00       1.50       0.02       0.00       0.02        0.00     0.00   0.014
  S95                        1.58       0.00       0.00       1.42       0.04       0.00       0.04        0.00     0.00   0.028
  S96                        1.58       0.00       0.00       1.43       0.04       0.00       0.04        0.00     0.00   0.028
  S97                        1.58       0.00       0.00       1.50       0.02       0.00       0.02        0.00     0.00   0.014
  S98                        1.58       0.00       0.00       0.87       0.66       0.00       0.66        0.01     0.00   0.415
  S99                        1.58       0.00       0.00       0.55       0.87       0.00       0.87        0.01     0.00   0.549
  S100                       1.58       0.00       0.00       0.87       0.66       0.00       0.66        0.01     0.00   0.415
  S101                       1.58       0.00       0.00       1.23       0.27       0.00       0.27        0.00     0.00   0.172
  S102                       1.58       0.00       0.00       1.23       0.27       0.00       0.27        0.00     0.00   0.171
  S103                       1.58       0.00       0.00       1.50       0.02       0.00       0.02        0.00     0.00   0.014
  S104                       1.58       0.00       0.00       1.42       0.04       0.00       0.04        0.00     0.00   0.028
  S105                       1.58       0.00       0.00       1.42       0.04       0.00       0.04        0.00     0.00   0.027
  S106                       1.58       0.00       0.00       1.55       0.01       0.00       0.01        0.00     0.00   0.007
  S107                       1.58       0.00       0.00       0.87       0.66       0.00       0.66        0.01     0.00   0.414
  S108                       1.58       0.00       0.00       1.35       0.05       0.00       0.05        0.00     0.00   0.034
  S109                       1.58       0.00       0.00       1.35       0.05       0.00       0.05        0.00     0.00   0.033
  S110                       1.58       0.00       0.00       1.43       0.04       0.00       0.04        0.00     0.00   0.028
  S111                       1.58       0.00       0.00       1.23       0.27       0.00       0.27        0.00     0.00   0.171
  S112                       1.58       0.00       0.00       1.11       0.40       0.00       0.40        0.01     0.00   0.253
  S113                       1.58       0.00       0.00       1.35       0.05       0.00       0.05        0.00     0.00   0.033
  S114                       1.58       0.00       0.00       1.50       0.02       0.00       0.02        0.00     0.00   0.014
  S115                       1.58       0.00       0.00       0.55       0.87       0.00       0.87        0.01     0.00   0.549
  S116                       1.58       0.00       0.00       1.55       0.01       0.00       0.01        0.00     0.00   0.007
  S117                       1.58       0.00       0.00       1.23       0.27       0.00       0.27        0.01     0.00   0.171
  S118                       1.58       0.00       0.00       1.50       0.02       0.00       0.02        0.00     0.00   0.014
  S119                       1.58       0.00       0.00       0.26       1.12       0.00       1.12        0.00     0.00   0.707
  S120                       1.58       0.00       0.00       1.35       0.05       0.00       0.05        0.00     0.00   0.034
  S121                       1.58       0.00       0.00       1.43       0.04       0.00       0.04        0.00     0.00   0.028
  S122                       1.58       0.00       0.00       1.23       0.27       0.00       0.27        0.00     0.00   0.173
  S123                       1.58       0.00       0.00       1.23       0.27       0.00       0.27        0.00     0.00   0.173
  S124                       1.58       0.00       0.00       1.43       0.04       0.00       0.04        0.00     0.00   0.028
  S125                       1.58       0.00       0.00       1.50       0.02       0.00       0.02        0.00     0.00   0.014
  S126                       1.58       0.00       0.00       0.87       0.66       0.00       0.66        0.01     0.00   0.416
  S127                       1.58       0.00       0.00       1.50       0.02       0.00       0.02        0.00     0.00   0.014
  S128                       1.58       0.00       0.00       1.23       0.27       0.00       0.27        0.00     0.00   0.171
  S129                       1.58       0.00       0.00       1.50       0.02       0.00       0.02        0.00     0.00   0.014
  S130                       1.58       0.00       0.00       1.55       0.01       0.00       0.01        0.00     0.00   0.007
  S131                       1.58       0.00       0.00       1.43       0.04       0.00       0.04        0.00     0.00   0.028
  S132                       1.58       0.00       0.00       1.55       0.01       0.00       0.01        0.00     0.00   0.007
  S133                       1.58       0.00       0.00       1.35       0.05       0.00       0.05        0.00     0.00   0.033
  S134                       1.58       0.00       0.00       1.35       0.05       0.00       0.05        0.00     0.00   0.034
  S135                       1.58       0.00       0.00       1.35       0.06       0.00       0.06        0.00     0.00   0.035
  S136                       1.58       0.00       0.00       1.35       0.06       0.00       0.06        0.00     0.00   0.036
  S137                       1.58       0.00       0.00       1.11       0.40       0.00       0.40        0.00     0.00   0.254
  S138                       1.58       0.00       0.00       1.50       0.02       0.00       0.02        0.00     0.00   0.014
  S139                       1.58       0.00       0.00       0.55       0.87       0.00       0.87        0.01     0.00   0.550
  S140                       1.58       0.00       0.00       1.55       0.01       0.00       0.01        0.00     0.00   0.006
  S141                       1.58       0.00       0.00       1.50       0.02       0.00       0.02        0.00     0.00   0.014
  S142                       1.58       0.00       0.00       1.11       0.40       0.00       0.40        0.01     0.00   0.253
  S143                       1.58       0.00       0.00       1.35       0.05       0.00       0.05        0.00     0.00   0.034
  S144                       1.58       0.00       0.00       1.35       0.05       0.00       0.05        0.00     0.00   0.033
  S145                       1.58       0.00       0.00       1.50       0.02       0.00       0.02        0.00     0.00   0.014
  S146                       1.58       0.00       0.00       1.35       0.05       0.00       0.05        0.00     0.00   0.035
  S147                       1.58       0.00       0.00       1.23       0.27       0.00       0.27        0.00     0.00   0.172
  S148                       1.58       0.00       0.00       1.35       0.05       0.00       0.05        0.00     0.00   0.035
  S149                       1.58       0.00       0.00       1.23       0.28       0.00       0.28        0.00     0.00   0.176
  S150                       1.58       0.00       0.00       1.23       0.27       0.00       0.27        0.00     0.00   0.173
  S151                       1.58       0.00       0.00       1.23       0.27       0.00       0.27        0.00     0.00   0.173
  S152                       1.58       0.00       0.00       1.42       0.04       0.00       0.04        0.00     0.00   0.028
  S153                       1.58       0.00       0.00       1.35       0.05       0.00       0.05        0.00     0.00   0.034
  S154                       1.58       0.00       0.00       1.11       0.40       0.00       0.40        0.00     0.00   0.254
  S155                       1.58       0.00       0.00       1.11       0.41       0.00       0.41        0.00     0.00   0.257
  S156                       1.58       0.00       0.00       1.11       0.40       0.00       0.40        0.01     0.00   0.253
  S157                       1.58       0.00       0.00       1.55       0.01       0.00       0.01        0.00     0.00   0.006
  S158                       1.58       0.00       0.00       1.42       0.04       0.00       0.04        0.00     0.00   0.027
  S159                       1.58       0.00       0.00       1.35       0.05       0.00       0.05        0.00     0.00   0.034
  S160                       1.58       0.00       0.00       1.50       0.02       0.00       0.02        0.00     0.00   0.014
  S161                       1.58       0.00       0.00       1.23       0.28       0.00       0.28        0.00     0.00   0.174
  S162                       1.58       0.00       0.00       1.35       0.05       0.00       0.05        0.00     0.00   0.033
  S163                       1.58       0.00       0.00       1.42       0.04       0.00       0.04        0.00     0.00   0.027
  S164                       1.58       0.00       0.00       1.35       0.05       0.00       0.05        0.00     0.00   0.033
  S165                       1.58       0.00       0.00       1.50       0.02       0.00       0.02        0.00     0.00   0.014
  S166                       1.58       0.00       0.00       1.35       0.05       0.00       0.05        0.00     0.00   0.033
  S167                       1.58       0.00       0.00       1.43       0.04       0.00       0.04        0.00     0.00   0.028
  S168                       1.58       0.00       0.00       1.43       0.04       0.00       0.04        0.00     0.00   0.028
  S169                       1.58       0.00       0.00       1.23       0.27       0.00       0.27        0.00     0.00   0.172
  S170                       1.58       0.00       0.00       1.43       0.04       0.00       0.04        0.00     0.00   0.028
  S171                       1.58       0.00       0.00       1.23       0.27       0.00       0.27        0.00     0.00   0.173
  S172                       1.58       0.00       0.00       1.35       0.06       0.00       0.06        0.00     0.00   0.035
  S173                       1.58       0.00       0.00       1.35       0.05       0.00       0.05        0.00     0.00   0.034
  S174                       1.58       0.00       0.00       0.26       1.12       0.00       1.12        0.01     0.00   0.705
  S175                       1.58       0.00       0.00       1.11       0.40       0.00       0.40        0.00     0.00   0.254
  S176                       1.58       0.00       0.00       0.87       0.66       0.00       0.66        0.00     0.00   0.416
  S177                       1.58       0.00       0.00       1.43       0.04       0.00       0.04        0.00     0.00   0.028
  S178                       1.58       0.00       0.00       1.23       0.27       0.00       0.27        0.00     0.00   0.174
  S179                       1.58       0.00       0.00       1.55       0.01       0.00       0.01        0.00     0.00   0.006
  S180                       1.58       0.00       0.00       1.50       0.02       0.00       0.02        0.00     0.00   0.014
  S181                       1.58       0.00       0.00       1.50       0.02       0.00       0.02        0.00     0.00   0.014
  S182                       1.58       0.00       0.00       1.50       0.02       0.00       0.02        0.00     0.00   0.014
  S183                       1.58       0.00       0.00       1.43       0.04       0.00       0.04        0.00     0.00   0.028
  S184                       1.58       0.00       0.00       0.55       0.87       0.00       0.87        0.01     0.00   0.551
  S185                       1.58       0.00       0.00       1.11       0.40       0.00       0.40        0.01     0.00   0.253
  S186                       1.58       0.00       0.00       1.35       0.05       0.00       0.05        0.00     0.00   0.033
  S187                       1.58       0.00       0.00       1.43       0.04       0.00       0.04        0.00     0.00   0.028
  S188                       1.58       0.00       0.00       1.42       0.04       0.00       0.04        0.00     0.00   0.028
  S189                       1.58       0.00       0.00       1.42       0.04       0.00       0.04        0.00     0.00   0.028
  S190                       1.58       0.00       0.00       1.50       0.02       0.00       0.02        0.00     0.00   0.014
  S191                       1.58       0.00       0.00       1.43       0.04       0.00       0.04        0.00     0.00   0.028
  S192                       1.58       0.00       0.00       1.35       0.05       0.00       0.05        0.00     0.00   0.034
  S193                       1.58       0.00       0.00       1.50       0.02       0.00       0.02        0.00     0.00   0.015
  S194                       1.58       0.00       0.00       1.55       0.01       0.00       0.01        0.00     0.00   0.006
  S195                       1.58       0.00       0.00       1.43       0.04       0.00       0.04        0.00     0.00   0.027
  S196                       1.58       0.00       0.00       1.43       0.04       0.00       0.04        0.00     0.00   0.028
  S197                       1.58       0.00       0.00       0.87       0.66       0.00       0.66        0.01     0.00   0.415
  S198                       1.58       0.00       0.00       1.35       0.05       0.00       0.05        0.00     0.00   0.032
  S199                       1.58       0.00       0.00       1.35       0.05       0.00       0.05        0.00     0.00   0.033
  S200                       1.58       0.00       0.00       1.43       0.04       0.00       0.04        0.00     0.00   0.027
  S201                       1.58       0.00       0.00       1.50       0.02       0.00       0.02        0.00     0.00   0.014
  S202                       1.58       0.00       0.00       1.23       0.27       0.00       0.27        0.00     0.00   0.172
  S203                       1.58       0.00       0.00       1.11       0.40       0.00       0.40        0.00     0.00   0.252
  S204                       1.58       0.00       0.00       0.55       0.87       0.00       0.87        0.01     0.00   0.550
  S205                       1.58       0.00       0.00       1.35       0.05       0.00       0.05        0.00     0.00   0.034
  S206                       1.58       0.00       0.00       1.50       0.02       0.00       0.02        0.00     0.00   0.014
  S207                       1.58       0.00       0.00       1.50       0.02       0.00       0.02        0.00     0.00   0.014
  S208                       1.58       0.00       0.00       1.50       0.02       0.00       0.02        0.00     0.00   0.014
  S209                       1.58       0.00       0.00       0.26       1.12       0.00       1.12        0.00     0.00   0.707
  S210                       1.58       0.00       0.00       1.50       0.02       0.00       0.02        0.00     0.00   0.014
  S211                       1.58       0.00       0.00       0.26       1.11       0.00       1.11        0.01     0.00   0.703
  S212                       1.58       0.00       0.00       1.35       0.06       0.00       0.06        0.00     0.00   0.035
  S213                       1.58       0.00       0.00       1.43       0.04       0.00       0.04        0.00     0.00   0.028
  S214                       1.58       0.00       0.00       1.35       0.06       0.00       0.06        0.00     0.00   0.036
  S215                       1.58       0.00       0.00       0.55       0.87       0.00       0.87        0.01     0.00   0.552
  S216                       1.58       0.00       0.00       0.55       0.87       0.00       0.87        0.01     0.00   0.550
  S217                       1.58       0.00       0.00       1.43       0.04       0.00       0.04        0.00     0.00   0.028
  S218                       1.58       0.00       0.00       1.23       0.27       0.00       0.27        0.00     0.00   0.173
  S219                       1.58       0.00       0.00       1.43       0.04       0.00       0.04        0.00     0.00   0.028
  S220                       1.58       0.00       0.00       1.11       0.40       0.00       0.40        0.00     0.00   0.253
  S221                       1.58       0.00       0.00       0.87       0.66       0.00       0.66        0.00     0.00   0.417
  S222                       1.58       0.00       0.00       1.11       0.40       0.00       0.40        0.00     0.00   0.254
  S223                       1.58       0.00       0.00       1.50       0.02       0.00       0.02        0.00     0.00   0.014
  S224                       1.58       0.00       0.00       0.87       0.66       0.00       0.66        0.01     0.00   0.414
  S225                       1.58       0.00       0.00       1.42       0.04       0.00       0.04        0.00     0.00   0.028
  S226                       1.58       0.00       0.00       1.35       0.05       0.00       0.05        0.00     0.00   0.033
  S227                       1.58       0.00       0.00       1.55       0.01       0.00       0.01        0.00     0.00   0.007
  S228                       1.58       0.00       0.00       1.23       0.28       0.00       0.28        0.00     0.00   0.174
  S229                       1.58       0.00       0.00       1.23       0.27       0.00       0.27        0.00     0.00   0.172
  S230                       1.58       0.00       0.00       1.35       0.05       0.00       0.05        0.00     0.00   0.034
  S231                       1.58       0.00       0.00       1.23       0.28       0.00       0.28        0.00     0.00   0.174
  S232                       1.58       0.00       0.00       1.11       0.40       0.00       0.40        0.00     0.00   0.253
  S233                       1.58       0.00       0.00       1.50       0.02       0.00       0.02        0.00     0.00   0.014
  S234                       1.58       0.00       0.00       1.43       0.04       0.00       0.04        0.00     0.00   0.028
  S235                       1.58       0.00       0.00       1.11       0.40       0.00       0.40        0.01     0.00   0.253
  S236                       1.58       0.00       0.00       1.23       0.28       0.00       0.28        0.00     0.00   0.177
  S237                       1.58       0.00       0.00       0.87       0.66       0.00       0.66        0.00     0.00   0.419
  S238                       1.58       0.00       0.00       1.43       0.04       0.00       0.04        0.00     0.00   0.028
  S239                       1.58       0.00       0.00       1.23       0.27       0.00       0.27        0.00     0.00   0.173
  S240                       1.58       0.00       0.00       0.55       0.87       0.00       0.87        0.01     0.00   0.551
  S241                       1.58       0.00       0.00       0.87       0.66       0.00       0.66        0.00     0.00   0.416
  S242                       1.58       0.00       0.00       1.42       0.04       0.00       0.04        0.00     0.00   0.028
  S243                       1.58       0.00       0.00       1.43       0.04       0.00       0.04        0.00     0.00   0.028
  S244                       1.58       0.00       0.00       1.50       0.02       0.00       0.02        0.00     0.00   0.014
  S245                       1.58       0.00       0.00       1.50       0.02       0.00       0.02        0.00     0.00   0.014
  S246                       1.58       0.00       0.00       0.26       1.11       0.00       1.11        0.02     0.00   0.702
  S247                       1.58       0.00       0.00       1.11       0.40       0.00       0.40        0.01     0.00   0.253
  S248                       1.58       0.00       0.00       1.35       0.05       0.00       0.05        0.00     0.00   0.034
  S249                       1.58       0.00       0.00       1.42       0.04       0.00       0.04        0.00     0.00   0.028
  S250                       1.58       0.00       0.00       1.42       0.04       0.00       0.04        0.00     0.00   0.027
  S251                       1.58       0.00       0.00       1.35       0.05       0.00       0.05        0.00     0.00   0.034
  S252                       1.58       0.00       0.00       1.50       0.02       0.00       0.02        0.00     0.00   0.014
  S253                       1.58       0.00       0.00       1.11       0.40       0.00       0.40        0.01     0.00   0.252
  S254                       1.58       0.00       0.00       1.50       0.02       0.00       0.02        0.00     0.00   0.014
  S255                       1.58       0.00       0.00       0.87       0.66       0.00       0.66        0.00     0.00   0.417
  S256                       1.58       0.00       0.00       1.50       0.02       0.00       0.02        0.00     0.00   0.014
  S257                       1.58       0.00       0.00       1.35       0.05       0.00       0.05        0.00     0.00   0.032
  S258                       1.58       0.00       0.00       1.50       0.02       0.00       0.02        0.00     0.00   0.014
  S259                       1.58       0.00       0.00       1.11       0.41       0.00       0.41        0.00     0.00   0.256
  S260                       1.58       0.00       0.00       1.35       0.06       0.00       0.06        0.00     0.00   0.035
  S261                       1.58       0.00       0.00       0.87       0.66       0.00       0.66        0.01     0.00   0.414
  S262                       1.58       0.00       0.00       1.11       0.40       0.00       0.40        0.00     0.00   0.253
  S263                       1.58       0.00       0.00       1.50       0.02       0.00       0.02        0.00     0.00   0.015
  S264                       1.58       0.00       0.00       0.26       1.11       0.00       1.11        0.02     0.00   0.702
  S265                       1.58       0.00       0.00       1.42       0.04       0.00       0.04        0.00     0.00   0.028
  S266                       1.58       0.00       0.00       1.11       0.40       0.00       0.40        0.00     0.00   0.254
  S267                       1.58       0.00       0.00       1.43       0.04       0.00       0.04        0.00     0.00   0.028
  S268                       1.58       0.00       0.00       1.43       0.04       0.00       0.04        0.00     0.00   0.028
  S269                       1.58       0.00       0.00       1.50       0.02       0.00       0.02        0.00     0.00   0.015
  S270                       1.58       0.00       0.00       1.42       0.04       0.00       0.04        0.00     0.00   0.027
  S271                       1.58       0.00       0.00       0.87       0.65       0.00       0.65        0.01     0.00   0.414
  S272                       1.58       0.00       0.00       1.35       0.05       0.00       0.05        0.00     0.00   0.032
  S273                       1.58       0.00       0.00       1.43       0.04       0.00       0.04        0.00     0.00   0.027
  S274                       1.58       0.00       0.00       1.35       0.05       0.00       0.05        0.00     0.00   0.032
  S275                       1.58       0.00       0.00       1.23       0.28       0.00       0.28        0.00     0.00   0.177
  S276                       1.58       0.00       0.00       0.87       0.66       0.00       0.66        0.01     0.00   0.415
  S277                       1.58       0.00       0.00       1.35       0.05       0.00       0.05        0.00     0.00   0.033
  S278                       1.58       0.00       0.00       1.35       0.05       0.00       0.05        0.00     0.00   0.035
  S279                       1.58       0.00       0.00       1.43       0.04       0.00       0.04        0.00     0.00   0.028
  S280                       1.58       0.00       0.00       1.50       0.02       0.00       0.02        0.00     0.00   0.014
  S281                       1.58       0.00       0.00       0.55       0.88       0.00       0.88        0.00     0.00   0.557
  S282                       1.58       0.00       0.00       1.43       0.04       0.00       0.04        0.00     0.00   0.028
  S283                       1.58       0.00       0.00       0.26       1.11       0.00       1.11        0.02     0.00   0.702
  S284                       1.58       0.00       0.00       1.43       0.04       0.00       0.04        0.00     0.00   0.028
  S285                       1.58       0.00       0.00       1.43       0.04       0.00       0.04        0.00     0.00   0.028
  S286                       1.58       0.00       0.00       1.11       0.40       0.00       0.40        0.01     0.00   0.253
  S287                       1.58       0.00       0.00       1.35       0.05       0.00       0.05        0.00     0.00   0.032
  S288                       1.58       0.00       0.00       1.11       0.41       0.00       0.41        0.00     0.00   0.256
  S289                       1.58       0.00       0.00       1.43       0.04       0.00       0.04        0.00     0.00   0.028
  S290                       1.58       0.00       0.00       1.50       0.02       0.00       0.02        0.00     0.00   0.014
  S291                       1.58       0.00       0.00       1.50       0.02       0.00       0.02        0.00     0.00   0.014
  S292                       1.58       0.00       0.00       1.11       0.40       0.00       0.40        0.01     0.00   0.254
  S293                       1.58       0.00       0.00       1.35       0.05       0.00       0.05        0.00     0.00   0.033
  S294                       1.58       0.00       0.00       1.23       0.27       0.00       0.27        0.00     0.00   0.173
  S295                       1.58       0.00       0.00       0.26       1.11       0.00       1.11        0.02     0.00   0.702
  S296                       1.58       0.00       0.00       1.35       0.05       0.00       0.05        0.00     0.00   0.034
  S297                       1.58       0.00       0.00       1.35       0.05       0.00       0.05        0.00     0.00   0.034
  S298                       1.58       0.00       0.00       1.50       0.02       0.00       0.02        0.00     0.00   0.014
  S299                       1.58       0.00       0.00       1.23       0.27       0.00       0.27        0.00     0.00   0.171
  S300                       1.58       0.00       0.00       1.11       0.40       0.00       0.40        0.01     0.00   0.252
  S301                       1.58       0.00       0.00       1.11       0.41       0.00       0.41        0.00     0.00   0.259
  S302                       1.58       0.00       0.00       1.43       0.04       0.00       0.04        0.00     0.00   0.028
  S303                       1.58       0.00       0.00       1.50       0.02       0.00       0.02        0.00     0.00   0.014
  S304                       1.58       0.00       0.00       1.43       0.04       0.00       0.04        0.00     0.00   0.028
  S305                       1.58       0.00       0.00       1.42       0.04       0.00       0.04        0.00     0.00   0.028
  S306                       1.58       0.00       0.00       1.43       0.04       0.00       0.04        0.00     0.00   0.027
  S307                       1.58       0.00       0.00       1.43       0.04       0.00       0.04        0.00     0.00   0.028
  S308                       1.58       0.00       0.00       1.11       0.40       0.00       0.40        0.01     0.00   0.253
  S309                       1.58       0.00       0.00       0.87       0.66       0.00       0.66        0.00     0.00   0.418
  S310                       1.58       0.00       0.00       1.11       0.40       0.00       0.40        0.00     0.00   0.254
  S311                       1.58       0.00       0.00       1.43       0.04       0.00       0.04        0.00     0.00   0.027
  S312                       1.58       0.00       0.00       1.43       0.04       0.00       0.04        0.00     0.00   0.028
  S313                       1.58       0.00       0.00       1.11       0.40       0.00       0.40        0.01     0.00   0.253
  S314                       1.58       0.00       0.00       0.87       0.66       0.00       0.66        0.01     0.00   0.415
  S315                       1.58       0.00       0.00       1.35       0.05       0.00       0.05        0.00     0.00   0.034
  S316                       1.58       0.00       0.00       1.50       0.02       0.00       0.02        0.00     0.00   0.014
  S317                       1.58       0.00       0.00       1.50       0.02       0.00       0.02        0.00     0.00   0.014
  S318                       1.58       0.00       0.00       1.50       0.02       0.00       0.02        0.00     0.00   0.014
  S319                       1.58       0.00       0.00       0.87       0.66       0.00       0.66        0.01     0.00   0.415
  S320                       1.58       0.00       0.00       1.23       0.27       0.00       0.27        0.00     0.00   0.173
  S321                       1.58       0.00       0.00       1.35       0.06       0.00       0.06        0.00     0.00   0.035
  S322                       1.58       0.00       0.00       1.50       0.02       0.00       0.02        0.00     0.00   0.014
  S323                       1.58       0.00       0.00       1.35       0.05       0.00       0.05        0.00     0.00   0.034
  S324                       1.58       0.00       0.00       1.11       0.40       0.00       0.40        0.01     0.00   0.253
  S325                       1.58       0.00       0.00       1.43       0.04       0.00       0.04        0.00     0.00   0.027
  S326                       1.58       0.00       0.00       1.23       0.27       0.00       0.27        0.00     0.00   0.173
  S327                       1.58       0.00       0.00       1.11       0.40       0.00       0.40        0.00     0.00   0.254
  S328                       1.58       0.00       0.00       1.23       0.27       0.00       0.27        0.00     0.00   0.172
  S329                       1.58       0.00       0.00       1.11       0.40       0.00       0.40        0.01     0.00   0.254
  S330                       1.58       0.00       0.00       1.43       0.04       0.00       0.04        0.00     0.00   0.027
  S331                       1.58       0.00       0.00       1.43       0.04       0.00       0.04        0.00     0.00   0.028
  S332                       1.58       0.00       0.00       1.23       0.27       0.00       0.27        0.01     0.00   0.171
  S333                       1.58       0.00       0.00       1.11       0.40       0.00       0.40        0.00     0.00   0.252
  S334                       1.58       0.00       0.00       1.11       0.40       0.00       0.40        0.00     0.00   0.254
  S335                       1.58       0.00       0.00       1.50       0.02       0.00       0.02        0.00     0.00   0.014
  S336                       1.58       0.00       0.00       1.11       0.40       0.00       0.40        0.00     0.00   0.254
  S337                       1.58       0.00       0.00       1.42       0.04       0.00       0.04        0.00     0.00   0.028
  S338                       1.58       0.00       0.00       0.26       1.11       0.00       1.11        0.02     0.00   0.702
  S339                       1.58       0.00       0.00       1.43       0.05       0.00       0.05        0.00     0.00   0.028
  S340                       1.58       0.00       0.00       1.42       0.04       0.00       0.04        0.00     0.00   0.027
  S341                       1.58       0.00       0.00       1.50       0.02       0.00       0.02        0.00     0.00   0.014
  S342                       1.58       0.00       0.00       0.26       1.11       0.00       1.11        0.01     0.00   0.703
  S343                       1.58       0.00       0.00       1.11       0.40       0.00       0.40        0.01     0.00   0.253
  S344                       1.58       0.00       0.00       1.23       0.28       0.00       0.28        0.00     0.00   0.174
  S345                       1.58       0.00       0.00       1.43       0.04       0.00       0.04        0.00     0.00   0.028
  S346                       1.58       0.00       0.00       1.43       0.04       0.00       0.04        0.00     0.00   0.028
  S347                       1.58       0.00       0.00       1.43       0.04       0.00       0.04        0.00     0.00   0.027
  S348                       1.58       0.00       0.00       1.50       0.02       0.00       0.02        0.00     0.00   0.014
  S349                       1.58       0.00       0.00       1.55       0.01       0.00       0.01        0.00     0.00   0.006
  S350                       1.58       0.00       0.00       1.42       0.04       0.00       0.04        0.00     0.00   0.028
  S351                       1.58       0.00       0.00       1.11       0.40       0.00       0.40        0.01     0.00   0.252
  S352                       1.58       0.00       0.00       1.50       0.02       0.00       0.02        0.00     0.00   0.014
  S353                       1.58       0.00       0.00       1.35       0.05       0.00       0.05        0.00     0.00   0.033
  S354                       1.58       0.00       0.00       1.43       0.04       0.00       0.04        0.00     0.00   0.028
  S355                       1.58       0.00       0.00       1.11       0.40       0.00       0.40        0.01     0.00   0.253
  S356                       1.58       0.00       0.00       1.43       0.04       0.00       0.04        0.00     0.00   0.027
  S357                       1.58       0.00       0.00       1.43       0.04       0.00       0.04        0.00     0.00   0.028
  S358                       1.58       0.00       0.00       1.50       0.02       0.00       0.02        0.00     0.00   0.014
  S359                       1.58       0.00       0.00       1.43       0.04       0.00       0.04        0.00     0.00   0.028
  S360                       1.58       0.00       0.00       1.43       0.04       0.00       0.04        0.00     0.00   0.027
  S361                       1.58       0.00       0.00       1.42       0.04       0.00       0.04        0.00     0.00   0.027
  S362                       1.58       0.00       0.00       1.43       0.04       0.00       0.04        0.00     0.00   0.027
  S363                       1.58       0.00       0.00       1.43       0.04       0.00       0.04        0.00     0.00   0.028
  S364                       1.58       0.00       0.00       1.55       0.01       0.00       0.01        0.00     0.00   0.006
  S365                       1.58       0.00       0.00       1.43       0.04       0.00       0.04        0.00     0.00   0.027
  S366                       1.58       0.00       0.00       1.55       0.01       0.00       0.01        0.00     0.00   0.006
  S367                       1.58       0.00       0.00       1.43       0.04       0.00       0.04        0.00     0.00   0.028
  S368                       1.58       0.00       0.00       1.55       0.01       0.00       0.01        0.00     0.00   0.006
  S369                       1.58       0.00       0.00       0.55       0.87       0.00       0.87        0.01     0.00   0.549
  S370                       1.58       0.00       0.00       0.87       0.66       0.00       0.66        0.01     0.00   0.415
  S371                       1.58       0.00       0.00       1.11       0.41       0.00       0.41        0.00     0.00   0.257
  S372                       1.58       0.00       0.00       1.43       0.04       0.00       0.04        0.00     0.00   0.028
  S373                       1.58       0.00       0.00       0.26       1.11       0.00       1.11        0.02     0.00   0.702
  S374                       1.58       0.00       0.00       0.87       0.67       0.00       0.67        0.00     0.00   0.420
  S375                       1.58       0.00       0.00       1.11       0.40       0.00       0.40        0.00     0.00   0.255
  S376                       1.58       0.00       0.00       0.55       0.87       0.00       0.87        0.02     0.00   0.549
  S377                       1.58       0.00       0.00       1.43       0.04       0.00       0.04        0.00     0.00   0.028
  S378                       1.58       0.00       0.00       1.43       0.04       0.00       0.04        0.00     0.00   0.028
  S379                       1.58       0.00       0.00       1.35       0.05       0.00       0.05        0.00     0.00   0.034
  S380                       1.58       0.00       0.00       1.23       0.28       0.00       0.28        0.00     0.00   0.174
  S381                       1.58       0.00       0.00       1.43       0.04       0.00       0.04        0.00     0.00   0.028
  S382                       1.58       0.00       0.00       1.23       0.27       0.00       0.27        0.01     0.00   0.172
  S383                       1.58       0.00       0.00       1.35       0.06       0.00       0.06        0.00     0.00   0.036
  S384                       1.58       0.00       0.00       1.11       0.40       0.00       0.40        0.00     0.00   0.253
  S385                       1.58       0.00       0.00       1.50       0.02       0.00       0.02        0.00     0.00   0.015
  S386                       1.58       0.00       0.00       0.87       0.66       0.00       0.66        0.01     0.00   0.414
  S387                       1.58       0.00       0.00       1.42       0.04       0.00       0.04        0.00     0.00   0.028
  S388                       1.58       0.00       0.00       1.43       0.04       0.00       0.04        0.00     0.00   0.028
  S389                       1.58       0.00       0.00       1.50       0.02       0.00       0.02        0.00     0.00   0.014
  S390                       1.58       0.00       0.00       0.87       0.66       0.00       0.66        0.00     0.00   0.415
  S391                       1.58       0.00       0.00       1.55       0.01       0.00       0.01        0.00     0.00   0.006
  S392                       1.58       0.00       0.00       1.35       0.06       0.00       0.06        0.00     0.00   0.035
  S393                       1.58       0.00       0.00       1.43       0.04       0.00       0.04        0.00     0.00   0.027
  S394                       1.58       0.00       0.00       0.87       0.66       0.00       0.66        0.01     0.00   0.414
  S395                       1.58       0.00       0.00       0.26       1.12       0.00       1.12        0.00     0.00   0.707
  S396                       1.58       0.00       0.00       1.23       0.28       0.00       0.28        0.00     0.00   0.175
  S397                       1.58       0.00       0.00       1.35       0.05       0.00       0.05        0.00     0.00   0.032
  S398                       1.58       0.00       0.00       1.11       0.40       0.00       0.40        0.00     0.00   0.255
  S399                       1.58       0.00       0.00       1.35       0.06       0.00       0.06        0.00     0.00   0.035
  S400                       1.58       0.00       0.00       1.43       0.04       0.00       0.04        0.00     0.00   0.028
  S401                       1.58       0.00       0.00       1.11       0.40       0.00       0.40        0.00     0.00   0.252
  S402                       1.58       0.00       0.00       1.50       0.02       0.00       0.02        0.00     0.00   0.014
  S403                       1.58       0.00       0.00       0.87       0.66       0.00       0.66        0.01     0.00   0.415
  S404                       1.58       0.00       0.00       1.23       0.27       0.00       0.27        0.00     0.00   0.172
  S405                       1.58       0.00       0.00       0.87       0.66       0.00       0.66        0.01     0.00   0.416
  S406                       1.58       0.00       0.00       1.43       0.04       0.00       0.04        0.00     0.00   0.028
  S407                       1.58       0.00       0.00       1.35       0.05       0.00       0.05        0.00     0.00   0.032
  S408                       1.58       0.00       0.00       1.35       0.05       0.00       0.05        0.00     0.00   0.035
  S409                       1.58       0.00       0.00       1.43       0.04       0.00       0.04        0.00     0.00   0.028
  S410                       1.58       0.00       0.00       1.35       0.05       0.00       0.05        0.00     0.00   0.034
  S411                       1.58       0.00       0.00       1.43       0.04       0.00       0.04        0.00     0.00   0.028
  S412                       1.58       0.00       0.00       1.42       0.04       0.00       0.04        0.00     0.00   0.027
  S413                       1.58       0.00       0.00       1.43       0.04       0.00       0.04        0.00     0.00   0.028
  S414                       1.58       0.00       0.00       1.42       0.04       0.00       0.04        0.00     0.00   0.027
  S415                       1.58       0.00       0.00       1.23       0.27       0.00       0.27        0.00     0.00   0.173
  S416                       1.58       0.00       0.00       0.87       0.66       0.00       0.66        0.00     0.00   0.417
  S417                       1.58       0.00       0.00       1.11       0.40       0.00       0.40        0.00     0.00   0.253
  S418                       1.58       0.00       0.00       1.43       0.04       0.00       0.04        0.00     0.00   0.028
  S419                       1.58       0.00       0.00       1.23       0.28       0.00       0.28        0.00     0.00   0.174
  S420                       1.58       0.00       0.00       0.55       0.87       0.00       0.87        0.01     0.00   0.550
  S421                       1.58       0.00       0.00       1.23       0.27       0.00       0.27        0.00     0.00   0.172
  S422                       1.58       0.00       0.00       1.11       0.40       0.00       0.40        0.00     0.00   0.254
  S423                       1.58       0.00       0.00       1.23       0.27       0.00       0.27        0.00     0.00   0.172
  S424                       1.58       0.00       0.00       1.43       0.04       0.00       0.04        0.00     0.00   0.028
  S425                       1.58       0.00       0.00       1.43       0.04       0.00       0.04        0.00     0.00   0.028
  S426                       1.58       0.00       0.00       0.87       0.65       0.00       0.65        0.01     0.00   0.414
  S427                       1.58       0.00       0.00       1.35       0.05       0.00       0.05        0.00     0.00   0.034
  S428                       1.58       0.00       0.00       1.35       0.06       0.00       0.06        0.00     0.00   0.035
  S429                       1.58       0.00       0.00       1.35       0.06       0.00       0.06        0.00     0.00   0.035
  S430                       1.58       0.00       0.00       1.11       0.40       0.00       0.40        0.00     0.00   0.253
  S431                       1.58       0.00       0.00       1.35       0.05       0.00       0.05        0.00     0.00   0.034
  S432                       1.58       0.00       0.00       1.11       0.40       0.00       0.40        0.01     0.00   0.252
  S433                       1.58       0.00       0.00       1.35       0.06       0.00       0.06        0.00     0.00   0.035
  S434                       1.58       0.00       0.00       1.43       0.04       0.00       0.04        0.00     0.00   0.028
  S435                       1.58       0.00       0.00       0.55       0.87       0.00       0.87        0.02     0.00   0.549
  S436                       1.58       0.00       0.00       1.43       0.04       0.00       0.04        0.00     0.00   0.028
  S437                       1.58       0.00       0.00       1.43       0.04       0.00       0.04        0.00     0.00   0.028
  S438                       1.58       0.00       0.00       1.11       0.41       0.00       0.41        0.00     0.00   0.259
  S439                       1.58       0.00       0.00       0.87       0.66       0.00       0.66        0.01     0.00   0.416
  S440                       1.58       0.00       0.00       1.50       0.02       0.00       0.02        0.00     0.00   0.014
  S441                       1.58       0.00       0.00       1.11       0.40       0.00       0.40        0.00     0.00   0.253
  S442                       1.58       0.00       0.00       1.35       0.05       0.00       0.05        0.00     0.00   0.033
  S443                       1.58       0.00       0.00       1.43       0.04       0.00       0.04        0.00     0.00   0.028
  S444                       1.58       0.00       0.00       1.43       0.04       0.00       0.04        0.00     0.00   0.028
  S445                       1.58       0.00       0.00       1.50       0.02       0.00       0.02        0.00     0.00   0.014
  S446                       1.58       0.00       0.00       1.50       0.02       0.00       0.02        0.00     0.00   0.014
  S447                       1.58       0.00       0.00       1.50       0.02       0.00       0.02        0.00     0.00   0.014
  S448                       1.58       0.00       0.00       1.42       0.04       0.00       0.04        0.00     0.00   0.028
  S449                       1.58       0.00       0.00       1.43       0.04       0.00       0.04        0.00     0.00   0.027
  S450                       1.58       0.00       0.00       0.87       0.66       0.00       0.66        0.01     0.00   0.414
  S451                       1.58       0.00       0.00       1.55       0.01       0.00       0.01        0.00     0.00   0.007
  S452                       1.58       0.00       0.00       1.55       0.01       0.00       0.01        0.00     0.00   0.006
  S453                       1.58       0.00       0.00       1.50       0.02       0.00       0.02        0.00     0.00   0.014
  S454                       1.58       0.00       0.00       0.87       0.66       0.00       0.66        0.01     0.00   0.415
  S455                       1.58       0.00       0.00       0.87       0.66       0.00       0.66        0.00     0.00   0.418
  S456                       1.58       0.00       0.00       1.43       0.04       0.00       0.04        0.00     0.00   0.028
  S457                       1.58       0.00       0.00       1.43       0.04       0.00       0.04        0.00     0.00   0.027
  S458                       1.58       0.00       0.00       1.35       0.05       0.00       0.05        0.00     0.00   0.034
  S459                       1.58       0.00       0.00       1.55       0.01       0.00       0.01        0.00     0.00   0.006
  S460                       1.58       0.00       0.00       1.23       0.27       0.00       0.27        0.00     0.00   0.172
  S461                       1.58       0.00       0.00       1.43       0.04       0.00       0.04        0.00     0.00   0.028
  S462                       1.58       0.00       0.00       1.43       0.04       0.00       0.04        0.00     0.00   0.028
  S463                       1.58       0.00       0.00       1.43       0.04       0.00       0.04        0.00     0.00   0.027
  S464                       1.58       0.00       0.00       0.55       0.87       0.00       0.87        0.01     0.00   0.552
  S465                       1.58       0.00       0.00       0.87       0.66       0.00       0.66        0.00     0.00   0.420
  S466                       1.58       0.00       0.00       1.43       0.04       0.00       0.04        0.00     0.00   0.028
  S467                       1.58       0.00       0.00       1.50       0.02       0.00       0.02        0.00     0.00   0.015
  S468                       1.58       0.00       0.00       1.43       0.04       0.00       0.04        0.00     0.00   0.028
  S469                       1.58       0.00       0.00       1.43       0.04       0.00       0.04        0.00     0.00   0.027
  S470                       1.58       0.00       0.00       0.26       1.11       0.00       1.11        0.02     0.00   0.703
  S471                       1.58       0.00       0.00       1.55       0.01       0.00       0.01        0.00     0.00   0.006
  S472                       1.58       0.00       0.00       1.50       0.02       0.00       0.02        0.00     0.00   0.014
  S473                       1.58       0.00       0.00       1.55       0.01       0.00       0.01        0.00     0.00   0.006
  S474                       1.58       0.00       0.00       1.50       0.02       0.00       0.02        0.00     0.00   0.014
  S475                       1.58       0.00       0.00       0.87       0.66       0.00       0.66        0.00     0.00   0.420
  S476                       1.58       0.00       0.00       1.43       0.04       0.00       0.04        0.00     0.00   0.028
  S477                       1.58       0.00       0.00       1.23       0.27       0.00       0.27        0.00     0.00   0.171
  S478                       1.58       0.00       0.00       1.43       0.04       0.00       0.04        0.00     0.00   0.027
  S479                       1.58       0.00       0.00       1.35       0.05       0.00       0.05        0.00     0.00   0.035
  S480                       1.58       0.00       0.00       1.35       0.06       0.00       0.06        0.00     0.00   0.035
  S481                       1.58       0.00       0.00       1.50       0.02       0.00       0.02        0.00     0.00   0.014
  S482                       1.58       0.00       0.00       1.23       0.27       0.00       0.27        0.00     0.00   0.173
  S483                       1.58       0.00       0.00       0.87       0.66       0.00       0.66        0.01     0.00   0.415
  S484                       1.58       0.00       0.00       1.11       0.40       0.00       0.40        0.01     0.00   0.254
  S485                       1.58       0.00       0.00       0.26       1.12       0.00       1.12        0.00     0.00   0.707
  S486                       1.58       0.00       0.00       1.50       0.02       0.00       0.02        0.00     0.00   0.014
  S487                       1.58       0.00       0.00       1.35       0.05       0.00       0.05        0.00     0.00   0.034
  S488                       1.58       0.00       0.00       1.50       0.02       0.00       0.02        0.00     0.00   0.014
  S489                       1.58       0.00       0.00       1.23       0.27       0.00       0.27        0.01     0.00   0.172
  S490                       1.58       0.00       0.00       1.43       0.04       0.00       0.04        0.00     0.00   0.028
  S491                       1.58       0.00       0.00       1.50       0.02       0.00       0.02        0.00     0.00   0.014
  S492                       1.58       0.00       0.00       1.43       0.04       0.00       0.04        0.00     0.00   0.028
  S493                       1.58       0.00       0.00       1.50       0.02       0.00       0.02        0.00     0.00   0.014
  S494                       1.58       0.00       0.00       1.23       0.27       0.00       0.27        0.00     0.00   0.172
  S495                       1.58       0.00       0.00       1.55       0.01       0.00       0.01        0.00     0.00   0.006
  S496                       1.58       0.00       0.00       0.55       0.87       0.00       0.87        0.02     0.00   0.549
  S497                       1.58       0.00       0.00       1.23       0.27       0.00       0.27        0.00     0.00   0.172
  S498                       1.58       0.00       0.00       1.43       0.04       0.00       0.04        0.00     0.00   0.028
  S499                       1.58       0.00       0.00       1.55       0.01       0.00       0.01        0.00     0.00   0.006
  S500                       1.58       0.00       0.00       1.35       0.05       0.00       0.05        0.00     0.00   0.034
  S501                       1.58       0.00       0.00       1.42       0.04       0.00       0.04        0.00     0.00   0.028
  S502                       1.58       0.00       0.00       0.87       0.66       0.00       0.66        0.00     0.00   0.418
  S503                       1.58       0.00       0.00       1.42       0.04       0.00       0.04        0.00     0.00   0.028
  S504                       1.58       0.00       0.00       0.55       0.87       0.00       0.87        0.01     0.00   0.549
  S505                       1.58       0.00       0.00       1.55       0.01       0.00       0.01        0.00     0.00   0.006
  S506                       1.58       0.00       0.00       0.55       0.90       0.00       0.90        0.00     0.00   0.566
  S507                       1.58       0.00       0.00       1.43       0.04       0.00       0.04        0.00     0.00   0.027
  S508                       1.58       0.00       0.00       1.43       0.04       0.00       0.04        0.00     0.00   0.028
  S509                       1.58       0.00       0.00       1.50       0.02       0.00       0.02        0.00     0.00   0.014
  S510                       1.58       0.00       0.00       0.55       0.87       0.00       0.87        0.01     0.00   0.549
  S511                       1.58       0.00       0.00       1.11       0.40       0.00       0.40        0.01     0.00   0.252
  S512                       1.58       0.00       0.00       0.87       0.66       0.00       0.66        0.00     0.00   0.415
  S513                       1.58       0.00       0.00       1.50       0.02       0.00       0.02        0.00     0.00   0.014
  S514                       1.58       0.00       0.00       1.43       0.04       0.00       0.04        0.00     0.00   0.028
  S515                       1.58       0.00       0.00       1.11       0.40       0.00       0.40        0.01     0.00   0.254
  S516                       1.58       0.00       0.00       1.35       0.05       0.00       0.05        0.00     0.00   0.034
  S517                       1.58       0.00       0.00       1.50       0.02       0.00       0.02        0.00     0.00   0.014
  S518                       1.58       0.00       0.00       1.43       0.04       0.00       0.04        0.00     0.00   0.028
  S519                       1.58       0.00       0.00       0.55       0.87       0.00       0.87        0.01     0.00   0.551
  S520                       1.58       0.00       0.00       1.50       0.02       0.00       0.02        0.00     0.00   0.014
  S521                       1.58       0.00       0.00       1.35       0.05       0.00       0.05        0.00     0.00   0.034
  S522                       1.58       0.00       0.00       1.42       0.04       0.00       0.04        0.00     0.00   0.028
  S523                       1.58       0.00       0.00       1.50       0.02       0.00       0.02        0.00     0.00   0.014
  S524                       1.58       0.00       0.00       0.87       0.66       0.00       0.66        0.01     0.00   0.416
  S525                       1.58       0.00       0.00       1.43       0.04       0.00       0.04        0.00     0.00   0.028
  S526                       1.58       0.00       0.00       1.35       0.05       0.00       0.05        0.00     0.00   0.035
  S527                       1.58       0.00       0.00       1.43       0.04       0.00       0.04        0.00     0.00   0.028
  S528                       1.58       0.00       0.00       1.35       0.05       0.00       0.05        0.00     0.00   0.034
  S529                       1.58       0.00       0.00       1.43       0.04       0.00       0.04        0.00     0.00   0.028
  S530                       1.58       0.00       0.00       1.43       0.04       0.00       0.04        0.00     0.00   0.028
  S531                       1.58       0.00       0.00       1.43       0.04       0.00       0.04        0.00     0.00   0.028
  S532                       1.58       0.00       0.00       1.50       0.02       0.00       0.02        0.00     0.00   0.014
  S533                       1.58       0.00       0.00       1.42       0.04       0.00       0.04        0.00     0.00   0.028
  S534                       1.58       0.00       0.00       1.35       0.05       0.00       0.05        0.00     0.00   0.034
  S535                       1.58       0.00       0.00       0.87       0.66       0.00       0.66        0.00     0.00   0.416
  S536                       1.58       0.00       0.00       1.35       0.05       0.00       0.05        0.00     0.00   0.035
  S537                       1.58       0.00       0.00       0.26       1.11       0.00       1.11        0.02     0.00   0.702
  S538                       1.58       0.00       0.00       1.23       0.27       0.00       0.27        0.00     0.00   0.172
  S539                       1.58       0.00       0.00       1.23       0.28       0.00       0.28        0.00     0.00   0.175
  S540                       1.58       0.00       0.00       1.23       0.27       0.00       0.27        0.00     0.00   0.173
  S541                       1.58       0.00       0.00       1.43       0.04       0.00       0.04        0.00     0.00   0.028
  S542                       1.58       0.00       0.00       1.35       0.05       0.00       0.05        0.00     0.00   0.035
  S543                       1.58       0.00       0.00       1.35       0.05       0.00       0.05        0.00     0.00   0.034
  S544                       1.58       0.00       0.00       1.35       0.05       0.00       0.05        0.00     0.00   0.034
  S545                       1.58       0.00       0.00       1.43       0.04       0.00       0.04        0.00     0.00   0.028
  S546                       1.58       0.00       0.00       1.43       0.04       0.00       0.04        0.00     0.00   0.028
  S547                       1.58       0.00       0.00       1.23       0.29       0.00       0.29        0.00     0.00   0.183
  S548                       1.58       0.00       0.00       0.87       0.66       0.00       0.66        0.00     0.00   0.417
  S549                       1.58       0.00       0.00       0.87       0.66       0.00       0.66        0.01     0.00   0.414
  S550                       1.58       0.00       0.00       0.55       0.87       0.00       0.87        0.01     0.00   0.550
  S551                       1.58       0.00       0.00       1.43       0.04       0.00       0.04        0.00     0.00   0.028
  S552                       1.58       0.00       0.00       0.55       0.90       0.00       0.90        0.00     0.00   0.566
  S553                       1.58       0.00       0.00       1.35       0.05       0.00       0.05        0.00     0.00   0.034
  S554                       1.58       0.00       0.00       0.55       0.87       0.00       0.87        0.01     0.00   0.550
  S555                       1.58       0.00       0.00       1.43       0.04       0.00       0.04        0.00     0.00   0.028
  S556                       1.58       0.00       0.00       0.55       0.88       0.00       0.88        0.00     0.00   0.554
  S557                       1.58       0.00       0.00       1.35       0.05       0.00       0.05        0.00     0.00   0.032
  S558                       1.58       0.00       0.00       1.43       0.04       0.00       0.04        0.00     0.00   0.028
  S559                       1.58       0.00       0.00       1.23       0.29       0.00       0.29        0.00     0.00   0.180
  S560                       1.58       0.00       0.00       1.35       0.05       0.00       0.05        0.00     0.00   0.033
  S561                       1.58       0.00       0.00       1.50       0.02       0.00       0.02        0.00     0.00   0.014
  S562                       1.58       0.00       0.00       1.50       0.02       0.00       0.02        0.00     0.00   0.014
  S563                       1.58       0.00       0.00       1.23       0.27       0.00       0.27        0.00     0.00   0.172
  S564                       1.58       0.00       0.00       1.43       0.04       0.00       0.04        0.00     0.00   0.028
  S565                       1.58       0.00       0.00       1.50       0.02       0.00       0.02        0.00     0.00   0.014
  S566                       1.58       0.00       0.00       1.43       0.04       0.00       0.04        0.00     0.00   0.028
  S567                       1.58       0.00       0.00       1.55       0.01       0.00       0.01        0.00     0.00   0.006
  S568                       1.58       0.00       0.00       1.50       0.02       0.00       0.02        0.00     0.00   0.014
  S569                       1.58       0.00       0.00       1.35       0.05       0.00       0.05        0.00     0.00   0.032
  S570                       1.58       0.00       0.00       1.55       0.01       0.00       0.01        0.00     0.00   0.006
  S571                       1.58       0.00       0.00       1.50       0.02       0.00       0.02        0.00     0.00   0.014
  S572                       1.58       0.00       0.00       1.23       0.27       0.00       0.27        0.00     0.00   0.173
  S573                       1.58       0.00       0.00       0.87       0.66       0.00       0.66        0.01     0.00   0.415
  S574                       1.58       0.00       0.00       0.87       0.66       0.00       0.66        0.01     0.00   0.415
  S575                       1.58       0.00       0.00       0.55       0.87       0.00       0.87        0.01     0.00   0.549
  S576                       1.58       0.00       0.00       0.87       0.66       0.00       0.66        0.00     0.00   0.415
  S577                       1.58       0.00       0.00       1.11       0.41       0.00       0.41        0.00     0.00   0.257
  S578                       1.58       0.00       0.00       0.26       1.12       0.00       1.12        0.00     0.00   0.710
  S579                       1.58       0.00       0.00       1.43       0.04       0.00       0.04        0.00     0.00   0.028
  S580                       1.58       0.00       0.00       0.87       0.66       0.00       0.66        0.01     0.00   0.415
  S581                       1.58       0.00       0.00       1.43       0.04       0.00       0.04        0.00     0.00   0.028
  S582                       1.58       0.00       0.00       1.50       0.02       0.00       0.02        0.00     0.00   0.015
  S583                       1.58       0.00       0.00       0.26       1.13       0.00       1.13        0.00     0.00   0.711
  S584                       1.58       0.00       0.00       1.50       0.02       0.00       0.02        0.00     0.00   0.014
  S585                       1.58       0.00       0.00       0.26       1.11       0.00       1.11        0.01     0.00   0.703
  S586                       1.58       0.00       0.00       1.42       0.04       0.00       0.04        0.00     0.00   0.028
  S587                       1.58       0.00       0.00       1.43       0.04       0.00       0.04        0.00     0.00   0.027
  S588                       1.58       0.00       0.00       1.43       0.04       0.00       0.04        0.00     0.00   0.028
  S589                       1.58       0.00       0.00       1.55       0.01       0.00       0.01        0.00     0.00   0.006
  S590                       1.58       0.00       0.00       0.87       0.66       0.00       0.66        0.00     0.00   0.420
  S591                       1.58       0.00       0.00       1.43       0.04       0.00       0.04        0.00     0.00   0.028
  S592                       1.58       0.00       0.00       1.35       0.05       0.00       0.05        0.00     0.00   0.032
  S593                       1.58       0.00       0.00       1.23       0.27       0.00       0.27        0.00     0.00   0.172
  S594                       1.58       0.00       0.00       1.50       0.02       0.00       0.02        0.00     0.00   0.014
  S595                       1.58       0.00       0.00       1.55       0.01       0.00       0.01        0.00     0.00   0.007
  S596                       1.58       0.00       0.00       1.11       0.40       0.00       0.40        0.00     0.00   0.253
[...]
  S848                       1.58       0.00       0.00       1.43       0.04       0.00       0.04        0.00     0.00   0.028
  S849                       1.58       0.00       0.00       0.87       0.66       0.00       0.66        0.01     0.00   0.416
  S850                       1.58       0.00       0.00       1.50       0.02       0.00       0.02        0.00     0.00   0.014
  S851                       1.58       0.00       0.00       1.43       0.04       0.00       0.04        0.00     0.00   0.027
  S852                       1.58       0.00       0.00       1.35       0.05       0.00       0.05        0.00     0.00   0.033
  S853                       1.58       0.00       0.00       1.23       0.27       0.00       0.27        0.00     0.00   0.172
  S854                       1.58       0.00       0.00       1.42       0.04       0.00       0.04        0.00     0.00   0.027
  S855                       1.58       0.00       0.00       1.50       0.02       0.00       0.02        0.00     0.00   0.014
  S856                       1.58       0.00       0.00       1.11       0.40       0.00       0.40        0.01     0.00   0.254
  S857                       1.58       0.00       0.00       1.11       0.40       0.00       0.40        0.01     0.00   0.252
  S858                       1.58       0.00       0.00       0.87       0.66       0.00       0.66        0.00     0.00   0.416
  S859                       1.58       0.00       0.00       1.23       0.27       0.00       0.27        0.00     0.00   0.173
  S860                       1.58       0.00       0.00       0.55       0.87       0.00       0.87        0.02     0.00   0.549
  S861                       1.58       0.00       0.00       1.23       0.27       0.00       0.27        0.00     0.00   0.173
  S862                       1.58       0.00       0.00       1.50       0.02       0.00       0.02        0.00     0.00   0.014
  S863                       1.58       0.00       0.00       0.87       0.66       0.00       0.66        0.01     0.00   0.415
  S864                       1.58       0.00       0.00       1.43       0.04       0.00       0.04        0.00     0.00   0.028
  S865                       1.58       0.00       0.00       0.87       0.66       0.00       0.66        0.00     0.00   0.417
  S866                       1.58       0.00       0.00       1.43       0.04       0.00       0.04        0.00     0.00   0.028
  S867                       1.58       0.00       0.00       0.55       0.87       0.00       0.87        0.01     0.00   0.551
  S868                       1.58       0.00       0.00       0.87       0.66       0.00       0.66        0.01     0.00   0.415
  S869                       1.58       0.00       0.00       0.55       0.87       0.00       0.87        0.01     0.00   0.550
  S870                       1.58       0.00       0.00       1.50       0.02       0.00       0.02        0.00     0.00   0.014
  S871                       1.58       0.00       0.00       1.55       0.01       0.00       0.01        0.00     0.00   0.007
  S872                       1.58       0.00       0.00       1.42       0.04       0.00       0.04        0.00     0.00   0.028
  S873                       1.58       0.00       0.00       1.42       0.04       0.00       0.04        0.00     0.00   0.027
  S874                       1.58       0.00       0.00       1.43       0.04       0.00       0.04        0.00     0.00   0.028
  S875                       1.58       0.00       0.00       1.35       0.05       0.00       0.05        0.00     0.00   0.034
  S876                       1.58       0.00       0.00       0.87       0.66       0.00       0.66        0.01     0.00   0.417
  S877                       1.58       0.00       0.00       1.43       0.04       0.00       0.04        0.00     0.00   0.028
  S878                       1.58       0.00       0.00       1.23       0.27       0.00       0.27        0.00     0.00   0.173
  S879                       1.58       0.00       0.00       0.87       0.66       0.00       0.66        0.01     0.00   0.415
  S880                       1.58       0.00       0.00       1.11       0.40       0.00       0.40        0.00     0.00   0.253
  S881                       1.58       0.00       0.00       1.23       0.27       0.00       0.27        0.00     0.00   0.173
  S882                       1.58       0.00       0.00       1.23       0.27       0.00       0.27        0.00     0.00   0.172
  S883                       1.58       0.00       0.00       1.42       0.04       0.00       0.04        0.00     0.00   0.028
  S884                       1.58       0.00       0.00       1.23       0.27       0.00       0.27        0.01     0.00   0.172
  S885                       1.58       0.00       0.00       1.43       0.04       0.00       0.04        0.00     0.00   0.028
  S886                       1.58       0.00       0.00       0.26       1.12       0.00       1.12        0.00     0.00   0.706
  S887                       1.58       0.00       0.00       1.50       0.02       0.00       0.02        0.00     0.00   0.014
  S888                       1.58       0.00       0.00       1.43       0.04       0.00       0.04        0.00     0.00   0.028
  S889                       1.58       0.00       0.00       0.55       0.88       0.00       0.88        0.00     0.00   0.558
  S890                       1.58       0.00       0.00       0.87       0.66       0.00       0.66        0.01     0.00   0.415
  S891                       1.58       0.00       0.00       1.35       0.06       0.00       0.06        0.00     0.00   0.035
  S892                       1.58       0.00       0.00       1.50       0.02       0.00       0.02        0.00     0.00   0.014
  S893                       1.58       0.00       0.00       0.87       0.66       0.00       0.66        0.01     0.00   0.415
  S894                       1.58       0.00       0.00       1.23       0.27       0.00       0.27        0.01     0.00   0.172
  S895                       1.58       0.00       0.00       1.55       0.01       0.00       0.01        0.00     0.00   0.006
  S896                       1.58       0.00       0.00       1.43       0.04       0.00       0.04        0.00     0.00   0.028
  S897                       1.58       0.00       0.00       0.87       0.66       0.00       0.66        0.01     0.00   0.414
  S898                       1.58       0.00       0.00       1.35       0.05       0.00       0.05        0.00     0.00   0.032
  S899                       1.58       0.00       0.00       1.50       0.02       0.00       0.02        0.00     0.00   0.014
  S900                       1.58       0.00       0.00       1.55       0.01       0.00       0.01        0.00     0.00   0.006
  S901                       1.58       0.00       0.00       1.23       0.27       0.00       0.27        0.00     0.00   0.172
  S902                       1.58       0.00       0.00       1.42       0.04       0.00       0.04        0.00     0.00   0.028
  S903                       1.58       0.00       0.00       1.23       0.27       0.00       0.27        0.00     0.00   0.173
  S904                       1.58       0.00       0.00       0.26       1.11       0.00       1.11        0.01     0.00   0.703
  S905                       1.58       0.00       0.00       1.23       0.27       0.00       0.27        0.00     0.00   0.173
  S906                       1.58       0.00       0.00       1.43       0.04       0.00       0.04        0.00     0.00   0.028
  S907                       1.58       0.00       0.00       0.55       0.87       0.00       0.87        0.01     0.00   0.552
  S908                       1.58       0.00       0.00       0.87       0.66       0.00       0.66        0.00     0.00   0.418
  S909                       1.58       0.00       0.00       1.43       0.04       0.00       0.04        0.00     0.00   0.028
  S910                       1.58       0.00       0.00       1.11       0.40       0.00       0.40        0.01     0.00   0.254
  S911                       1.58       0.00       0.00       1.35       0.05       0.00       0.05        0.00     0.00   0.034
  S912                       1.58       0.00       0.00       1.55       0.01       0.00       0.01        0.00     0.00   0.006
  S913                       1.58       0.00       0.00       1.35       0.05       0.00       0.05        0.00     0.00   0.034
  S914                       1.58       0.00       0.00       1.23       0.27       0.00       0.27        0.01     0.00   0.172
  S915                       1.58       0.00       0.00       1.50       0.02       0.00       0.02        0.00     0.00   0.015
  S916                       1.58       0.00       0.00       1.50       0.02       0.00       0.02        0.00     0.00   0.014
  S917                       1.58       0.00       0.00       1.43       0.04       0.00       0.04        0.00     0.00   0.028
  S918                       1.58       0.00       0.00       1.50       0.02       0.00       0.02        0.00     0.00   0.015
  S919                       1.58       0.00       0.00       1.35       0.05       0.00       0.05        0.00     0.00   0.032
  S920                       1.58       0.00       0.00       0.55       0.87       0.00       0.87        0.01     0.00   0.550
  S921                       1.58       0.00       0.00       1.55       0.01       0.00       0.01        0.00     0.00   0.006
  S922                       1.58       0.00       0.00       0.87       0.66       0.00       0.66        0.01     0.00   0.415
  S923                       1.58       0.00       0.00       1.43       0.04       0.00       0.04        0.00     0.00   0.028
  S924                       1.58       0.00       0.00       1.23       0.27       0.00       0.27        0.00     0.00   0.172
  S925                       1.58       0.00       0.00       1.43       0.04       0.00       0.04        0.00     0.00   0.028
  S926                       1.58       0.00       0.00       1.35       0.05       0.00       0.05        0.00     0.00   0.034
  S927                       1.58       0.00       0.00       0.55       0.87       0.00       0.87        0.01     0.00   0.551
  S928                       1.58       0.00       0.00       0.87       0.66       0.00       0.66        0.01     0.00   0.414
  S929                       1.58       0.00       0.00       1.50       0.02       0.00       0.02        0.00     0.00   0.014
  S930                       1.58       0.00       0.00       1.35       0.05       0.00       0.05        0.00     0.00   0.033
  S931                       1.58       0.00       0.00       1.55       0.01       0.00       0.01        0.00     0.00   0.006
  S932                       1.58       0.00       0.00       1.55       0.01       0.00       0.01        0.00     0.00   0.007
  S933                       1.58       0.00       0.00       1.42       0.04       0.00       0.04        0.00     0.00   0.027
  S934                       1.58       0.00       0.00       1.11       0.40       0.00       0.40        0.01     0.00   0.253
  S935                       1.58       0.00       0.00       1.11       0.40       0.00       0.40        0.00     0.00   0.253
  S936                       1.58       0.00       0.00       0.87       0.66       0.00       0.66        0.01     0.00   0.414
  S937                       1.58       0.00       0.00       0.87       0.67       0.00       0.67        0.00     0.00   0.420
  S938                       1.58       0.00       0.00       1.11       0.40       0.00       0.40        0.00     0.00   0.252
  S939                       1.58       0.00       0.00       1.43       0.04       0.00       0.04        0.00     0.00   0.027
  S940                       1.58       0.00       0.00       1.35       0.05       0.00       0.05        0.00     0.00   0.034
  S941                       1.58       0.00       0.00       1.23       0.27       0.00       0.27        0.00     0.00   0.172
  S942                       1.58       0.00       0.00       1.42       0.04       0.00       0.04        0.00     0.00   0.028
  S943                       1.58       0.00       0.00       0.55       0.87       0.00       0.87        0.02     0.00   0.549
  S944                       1.58       0.00       0.00       0.87       0.66       0.00       0.66        0.01     0.00   0.414
  S945                       1.58       0.00       0.00       1.23       0.27       0.00       0.27        0.00     0.00   0.171
  S946                       1.58       0.00       0.00       0.87       0.66       0.00       0.66        0.01     0.00   0.414
  S947                       1.58       0.00       0.00       1.55       0.01       0.00       0.01        0.00     0.00   0.006
  S948                       1.58       0.00       0.00       0.87       0.66       0.00       0.66        0.00     0.00   0.414
  S949                       1.58       0.00       0.00       1.42       0.04       0.00       0.04        0.00     0.00   0.027
  S950                       1.58       0.00       0.00       1.50       0.02       0.00       0.02        0.00     0.00   0.014
  S951                       1.58       0.00       0.00       1.50       0.02       0.00       0.02        0.00     0.00   0.014
  S952                       1.58       0.00       0.00       1.50       0.02       0.00       0.02        0.00     0.00   0.014
  S953                       1.58       0.00       0.00       1.55       0.01       0.00       0.01        0.00     0.00   0.007
  S954                       1.58       0.00       0.00       1.23       0.27       0.00       0.27        0.00     0.00   0.173
  S955                       1.58       0.00       0.00       0.87       0.66       0.00       0.66        0.01     0.00   0.415
  S956                       1.58       0.00       0.00       1.50       0.02       0.00       0.02        0.00     0.00   0.014
  S957                       1.58       0.00       0.00       1.23       0.28       0.00       0.28        0.00     0.00   0.175
  S958                       1.58       0.00       0.00       0.55       0.87       0.00       0.87        0.01     0.00   0.549
  S959                       1.58       0.00       0.00       0.26       1.11       0.00       1.11        0.01     0.00   0.704
  S960                       1.58       0.00       0.00       1.50       0.02       0.00       0.02        0.00     0.00   0.014
  S961                       1.58       0.00       0.00       1.11       0.40       0.00       0.40        0.01     0.00   0.254
  S962                       1.58       0.00       0.00       1.50       0.02       0.00       0.02        0.00     0.00   0.014
  S963                       1.58       0.00       0.00       1.43       0.04       0.00       0.04        0.00     0.00   0.028
  S964                       1.58       0.00       0.00       1.43       0.04       0.00       0.04        0.00     0.00   0.028
  S965                       1.58       0.00       0.00       1.50       0.02       0.00       0.02        0.00     0.00   0.014
  S966                       1.58       0.00       0.00       1.35       0.05       0.00       0.05        0.00     0.00   0.034
  S967                       1.58       0.00       0.00       1.23       0.27       0.00       0.27        0.00     0.00   0.172
  S968                       1.58       0.00       0.00       1.35       0.05       0.00       0.05        0.00     0.00   0.032
  S969                       1.58       0.00       0.00       1.43       0.04       0.00       0.04        0.00     0.00   0.028
  S970                       1.58       0.00       0.00       0.26       1.13       0.00       1.13        0.00     0.00   0.717
  S971                       1.58       0.00       0.00       1.50       0.02       0.00       0.02        0.00     0.00   0.014
  S972                       1.58       0.00       0.00       0.26       1.11       0.00       1.11        0.01     0.00   0.703
  S973                       1.58       0.00       0.00       1.42       0.04       0.00       0.04        0.00     0.00   0.027
  S974                       1.58       0.00       0.00       1.50       0.02       0.00       0.02        0.00     0.00   0.015
  S975                       1.58       0.00       0.00       0.87       0.66       0.00       0.66        0.00     0.00   0.418
  S976                       1.58       0.00       0.00       1.43       0.04       0.00       0.04        0.00     0.00   0.028
  S977                       1.58       0.00       0.00       1.55       0.01       0.00       0.01        0.00     0.00   0.006
  S978                       1.58       0.00       0.00       0.55       0.87       0.00       0.87        0.01     0.00   0.549
  S979                       1.58       0.00       0.00       1.23       0.27       0.00       0.27        0.00     0.00   0.172
  S980                       1.58       0.00       0.00       1.50       0.02       0.00       0.02        0.00     0.00   0.014
  S981                       1.58       0.00       0.00       1.50       0.02       0.00       0.02        0.00     0.00   0.014
  S982                       1.58       0.00       0.00       0.87       0.66       0.00       0.66        0.01     0.00   0.415
  S983                       1.58       0.00       0.00       1.42       0.04       0.00       0.04        0.00     0.00   0.027
  S984                       1.58       0.00       0.00       1.23       0.27       0.00       0.27        0.00     0.00   0.173
  S985                       1.58       0.00       0.00       1.55       0.01       0.00       0.01        0.00     0.00   0.007
  S986                       1.58       0.00       0.00       1.43       0.04       0.00       0.04        0.00     0.00   0.028
  S987                       1.58       0.00       0.00       1.23       0.27       0.00       0.27        0.00     0.00   0.174
  S988                       1.58       0.00       0.00       1.35       0.05       0.00       0.05        0.00     0.00   0.032
  S989                       1.58       0.00       0.00       1.50       0.02       0.00       0.02        0.00     0.00   0.014
  S990                       1.58       0.00       0.00       0.87       0.66       0.00       0.66        0.00     0.00   0.418
  S991                       1.58       0.00       0.00       1.35       0.06       0.00       0.06        0.00     0.00   0.035
  S992                       1.58       0.00       0.00       0.26       1.11       0.00       1.11        0.02     0.00   0.702
  S993                       1.58       0.00       0.00       1.43       0.04       0.00       0.04        0.00     0.00   0.028
  S994                       1.58       0.00       0.00       1.11       0.40       0.00       0.40        0.00     0.00   0.253
  S995                       1.58       0.00       0.00       1.43       0.04       0.00       0.04        0.00     0.00   0.028
  S996                       1.58       0.00       0.00       1.50       0.02       0.00       0.02        0.00     0.00   0.014
  S997                       1.58       0.00       0.00       1.43       0.04       0.00       0.04        0.00     0.00   0.028
  S998                       1.58       0.00       0.00       0.55       0.90       0.00       0.90        0.00     0.00   0.570
  S999                       1.58       0.00       0.00       1.11       0.40       0.00       0.40        0.00     0.00   0.254
  S1000                      1.58       0.00       0.00       1.42       0.04       0.00       0.04        0.00     0.00   0.028
  S1001                      1.58       0.00       0.00       0.26       1.12       0.00       1.12        0.00     0.00   0.708
  

  Analysis begun on:  Wed Jul  5 06:53:47 2023
  Analysis ended on:  Wed Jul  5 06:53:48 2023
  Total elapsed time: 00:00:01