
  OWA STORM WATER MANAGEMENT MODEL - VERSION v5.2.3 (OWA 2023-03-28)
  ------------------------------------------------------------

  WARNING 09: time series interval greater than recording interval for Rain Gage Raingage2
  WARNING 01: wet weather time step reduced to recording interval for Rain Gage Raingage2
  
  ****************
  Analysis Options
  ****************
  Flow Units ............... CMS
  Process Models:
    Rainfall/Runoff ........ YES
    RDII ................... NO
    Snowmelt ............... NO
    Groundwater ............ NO
    Flow Routing ........... NO
    Water Quality .......... NO
  Infiltration Method ...... MODIFIED_GREEN_AMPT
  Starting Date ............ 06/17/2022 00:00:00
  Ending Date .............. 06/17/2022 12:00:00
  Antecedent Dry Days ...... 0.0
  Report Time Step ......... 00:15:00
  Wet Time Step ............ 00:01:00
  Dry Time Step ............ 01:00:00
  
  
  **************************        Volume         Depth
  Runoff Quantity Continuity     hectare-m            mm
  **************************     ---------       -------
  Total Precipitation ......        15.107        15.000
  Evaporation Loss .........         0.000         0.000
  Infiltration Loss ........         7.310         7.258
  Surface Runoff ...........         6.579         6.532
  Final Storage ............         1.317         1.308
  Continuity Error (%) .....        -0.653
  
  
  **************************        Volume        Volume
  Flow Routing Continuity        hectare-m      10^6 ltr
  **************************     ---------     ---------
  Dry Weather Inflow .......         0.000         0.000
  Wet Weather Inflow .......         6.579        65.786
  Groundwater Inflow .......         0.000         0.000
  RDII Inflow ..............         0.000         0.000
  External Inflow ..........         0.000         0.000
  External Outflow .........         6.579        65.786
  Flooding Loss ............         0.000         0.000
  Evaporation Loss .........         0.000         0.000
  Exfiltration Loss ........         0.000         0.000
  Initial Stored Volume ....         0.000         0.000
  Final Stored Volume ......         0.000         0.000
  Continuity Error (%) .....         0.000
  
  
  ***************************
  Subcatchment Runoff Summary
  ***************************
  
  ------------------------------------------------------------------------------------------------------------------------------
                            Total      Total      Total      Total     Imperv       Perv      Total       Total     Peak  Runoff
                           Precip      Runon       Evap      Infil     Runoff     Runoff     Runoff      Runoff   Runoff   Coeff
  Subcatchment                 mm         mm         mm         mm         mm         mm         mm    10^6 ltr      CMS
  ------------------------------------------------------------------------------------------------------------------------------
  S1                        15.00       0.00       0.00       7.33       2.99       4.51       7.50        0.04     0.01   0.500
  S2                        15.00       0.00       0.00       5.08       6.79       2.87       9.66        0.15     0.04   0.644
  S3                        15.00       0.00       0.00       8.74       0.75       5.10       5.85        0.05     0.01   0.390
  S4                        15.00       0.00       0.00       8.29       2.08       1.79       3.87        0.02     0.01   0.258
  S5                        15.00       0.00       0.00       7.27       3.46       3.51       6.97        0.10     0.03   0.465
  S6                        15.00       0.00       0.00       8.51       1.40       3.72       5.12        0.04     0.01   0.341
  S7                        15.00       0.00       0.00       8.96       0.72       3.98       4.70        0.06     0.01   0.313
  S8                        15.00       0.00       0.00       8.33       2.07       1.57       3.64        0.04     0.01   0.243
  S9                        15.00       0.00       0.00       5.06       6.82       2.98       9.80        0.09     0.02   0.653
  S10                       15.00       0.00       0.00       5.05       6.85       3.04       9.89        0.19     0.05   0.660
  S11                       15.00       0.00       0.00       6.59       4.50       3.04       7.55        0.08     0.02   0.503
  S12                       15.00       0.00       0.00       8.65       0.78       5.56       6.34        0.01     0.00   0.423
  S13                       15.00       0.00       0.00       8.45       1.40       4.02       5.42        0.09     0.02   0.361
  S14                       15.00       0.00       0.00       9.42       0.33       2.91       3.24        0.06     0.01   0.216
  S15                       15.00       0.00       0.00       5.08       6.79       2.87       9.66        0.15     0.04   0.644
  S16                       15.00       0.00       0.00       6.50       4.58       3.49       8.07        0.11     0.03   0.538
  S17                       15.00       0.00       0.00       8.26       2.08       1.98       4.06        0.01     0.00   0.271
  S18                       15.00       0.00       0.00       9.00       0.72       3.76       4.48        0.08     0.02   0.299
  S19                       15.00       0.00       0.00       7.34       3.40       3.13       6.53        0.08     0.02   0.435
  S20                       15.00       0.00       0.00       5.04       6.87       3.08       9.94        0.05     0.01   0.663
  S21                       15.00       0.00       0.00       8.54       1.39       3.53       4.92        0.05     0.01   0.328
  S22                       15.00       0.00       0.00       8.60       1.39       3.19       4.58        0.09     0.02   0.306
  S23                       15.00       0.00       0.00       7.34       3.40       3.11       6.51        0.08     0.02   0.434
  S24                       15.00       0.00       0.00       3.01      10.14       2.33      12.47        0.07     0.03   0.832
  S25                       15.00       0.00       0.00       7.06       3.66       4.53       8.19        0.00     0.00   0.546
  S26                       15.00       0.00       0.00       6.43       4.71       3.85       8.56        0.01     0.01   0.571
  S27                       15.00       0.00       0.00       6.53       4.55       3.37       7.92        0.15     0.04   0.528
  S28                       15.00       0.00       0.00       8.34       2.07       1.47       3.55        0.02     0.00   0.236
  S29                       15.00       0.00       0.00       8.96       0.72       3.97       4.69        0.06     0.01   0.312
  S30                       15.00       0.00       0.00       5.06       6.82       2.97       9.80        0.18     0.05   0.653
  S31                       15.00       0.00       0.00       4.88       7.26       3.40      10.66        0.01     0.00   0.711
  S32                       15.00       0.00       0.00       8.43       1.40       4.11       5.51        0.05     0.01   0.367
  S33                       15.00       0.00       0.00       5.05       6.84       3.03       9.87        0.07     0.02   0.658
  S34                       15.00       0.00       0.00       8.44       1.40       4.09       5.49        0.08     0.02   0.366
  S35                       15.00       0.00       0.00       3.04       9.90       2.26      12.16        0.23     0.08   0.811
  S36                       15.00       0.00       0.00       7.36       3.39       2.98       6.37        0.05     0.01   0.424
  S37                       15.00       0.00       0.00       8.41       2.07       1.02       3.08        0.03     0.01   0.205
  S38                       15.00       0.00       0.00       8.39       2.07       1.13       3.20        0.02     0.00   0.213
  S39                       15.00       0.00       0.00       9.42       0.33       2.96       3.29        0.06     0.01   0.219
  S40                       15.00       0.00       0.00       5.03       6.90       3.12      10.02        0.11     0.03   0.668
  S41                       15.00       0.00       0.00       8.61       1.39       3.15       4.54        0.04     0.01   0.302
  S42                       15.00       0.00       0.00       3.04       9.92       2.27      12.18        0.21     0.08   0.812
  S43                       15.00       0.00       0.00       5.13       6.75       2.63       9.38        0.18     0.04   0.625
  S44                       15.00       0.00       0.00       8.34       2.07       1.46       3.53        0.06     0.01   0.236
  S45                       15.00       0.00       0.00       6.49       4.59       3.54       8.12        0.09     0.03   0.542
  S46                       15.00       0.00       0.00       8.38       2.07       1.22       3.29        0.04     0.01   0.219
  S47                       15.00       0.00       0.00       7.29       3.44       3.40       6.84        0.13     0.04   0.456
  S48                       15.00       0.00       0.00       8.80       0.74       4.83       5.57        0.09     0.03   0.372
  S49                       15.00       0.00       0.00       5.06       6.82       2.98       9.80        0.18     0.05   0.653
  S50                       15.00       0.00       0.00       7.38       3.38       2.90       6.27        0.12     0.03   0.418
  S51                       15.00       0.00       0.00       3.03       9.97       2.28      12.26        0.15     0.06   0.817
  S52                       15.00       0.00       0.00       8.32       1.42       4.72       6.14        0.02     0.00   0.409
  S53                       15.00       0.00       0.00       9.25       0.33       3.95       4.28        0.01     0.00   0.285
  S54                       15.00       0.00       0.00       6.44       4.70       3.83       8.52        0.05     0.02   0.568
  S55                       15.00       0.00       0.00       8.79       0.74       4.89       5.63        0.08     0.02   0.375
  S56                       15.00       0.00       0.00       8.23       2.09       2.17       4.25        0.00     0.00   0.284
  S57                       15.00       0.00       0.00       8.46       1.40       3.97       5.37        0.10     0.02   0.358
  S58                       15.00       0.00       0.00       7.29       3.44       3.38       6.82        0.05     0.01   0.455
  S59                       15.00       0.00       0.00       8.40       1.41       4.30       5.71        0.01     0.00   0.381
  S60                       15.00       0.00       0.00       9.29       0.33       3.72       4.05        0.02     0.00   0.270
  S61                       15.00       0.00       0.00       8.38       2.07       1.22       3.29        0.04     0.01   0.220
  S62                       15.00       0.00       0.00       8.32       2.07       1.61       3.68        0.01     0.00   0.246
  S63                       15.00       0.00       0.00       7.08       3.67       4.46       8.12        0.00     0.00   0.542
  S64                       15.00       0.00       0.00       8.46       1.40       3.98       5.38        0.09     0.02   0.359
  S65                       15.00       0.00       0.00       9.05       0.35       4.99       5.34        0.00     0.00   0.356
  S66                       15.00       0.00       0.00       8.40       1.41       4.28       5.69        0.01     0.00   0.379
  S67                       15.00       0.00       0.00       6.55       4.53       3.26       7.79        0.10     0.03   0.520
  S68                       15.00       0.00       0.00       8.25       1.45       5.01       6.46        0.01     0.00   0.431
  S69                       15.00       0.00       0.00       5.09       6.78       2.85       9.64        0.16     0.04   0.643
  S70                       15.00       0.00       0.00       3.03       9.94       2.27      12.21        0.19     0.07   0.814
  S71                       15.00       0.00       0.00       8.39       2.07       1.15       3.22        0.02     0.00   0.215
  S72                       15.00       0.00       0.00       4.97       7.07       3.29      10.36        0.02     0.01   0.691
  S73                       15.00       0.00       0.00       8.72       0.76       5.22       5.98        0.03     0.01   0.399
  S74                       15.00       0.00       0.00       1.42      12.89       1.18      14.07        0.05     0.02   0.938
  S75                       15.00       0.00       0.00       5.03       6.90       3.13      10.03        0.07     0.02   0.669
  S76                       15.00       0.00       0.00       1.43      12.55       1.11      13.66        0.27     0.08   0.911
  S77                       15.00       0.00       0.00       8.30       2.08       1.71       3.78        0.01     0.00   0.252
  S78                       15.00       0.00       0.00       8.38       2.07       1.19       3.25        0.02     0.00   0.217
  S79                       15.00       0.00       0.00       5.01       7.00       3.24      10.24        0.05     0.02   0.683
  S80                       15.00       0.00       0.00       8.36       2.07       1.32       3.39        0.03     0.01   0.226
  S81                       15.00       0.00       0.00       8.50       1.40       3.75       5.15        0.02     0.00   0.343
  S82                       15.00       0.00       0.00       7.29       3.44       3.39       6.83        0.04     0.01   0.456
  S83                       15.00       0.00       0.00       3.03       9.95       2.27      12.22        0.18     0.07   0.815
  S84                       15.00       0.00       0.00       5.04       6.86       3.06       9.93        0.06     0.02   0.662
  S85                       15.00       0.00       0.00       1.42      12.71       1.14      13.85        0.11     0.04   0.923
  S86                       15.00       0.00       0.00       8.83       0.73       4.69       5.42        0.01     0.00   0.362
  S87                       15.00       0.00       0.00       6.52       4.55       3.38       7.94        0.15     0.04   0.529
  S88                       15.00       0.00       0.00       8.80       0.74       4.80       5.54        0.10     0.03   0.369
  S89                       15.00       0.00       0.00       7.44       3.35       2.53       5.88        0.11     0.02   0.392
  S90                       15.00       0.00       0.00       8.56       1.39       3.44       4.83        0.06     0.01   0.322
  S91                       15.00       0.00       0.00       8.48       1.40       3.89       5.29        0.08     0.02   0.352
  S92                       15.00       0.00       0.00       8.94       0.72       4.07       4.79        0.05     0.01   0.319
  S93                       15.00       0.00       0.00       1.41      13.19       1.23      14.42        0.02     0.01   0.961
  S94                       15.00       0.00       0.00       8.98       0.72       3.89       4.61        0.06     0.01   0.307
  S95                       15.00       0.00       0.00       8.47       1.40       3.94       5.34        0.10     0.02   0.356
  S96                       15.00       0.00       0.00       8.42       1.40       4.20       5.61        0.06     0.01   0.374
  S97                       15.00       0.00       0.00       8.77       0.75       4.99       5.74        0.06     0.02   0.382
  S98                       15.00       0.00       0.00       5.07       6.82       2.96       9.78        0.19     0.05   0.652
  S99                       15.00       0.00       0.00       3.04       9.92       2.27      12.19        0.20     0.08   0.812
  S100                      15.00       0.00       0.00       5.06       6.83       2.99       9.81        0.17     0.04   0.654
  S101                      15.00       0.00       0.00       7.32       3.42       3.23       6.65        0.06     0.02   0.443
  S102                      15.00       0.00       0.00       7.43       3.36       2.63       5.98        0.09     0.02   0.399
  S103                      15.00       0.00       0.00       8.81       0.74       4.78       5.51        0.11     0.03   0.368
  S104                      15.00       0.00       0.00       8.49       1.40       3.82       5.22        0.09     0.02   0.348
  S105                      15.00       0.00       0.00       8.59       1.39       3.27       4.66        0.08     0.01   0.311
  S106                      15.00       0.00       0.00       9.31       0.33       3.60       3.93        0.02     0.00   0.262
  S107                      15.00       0.00       0.00       5.10       6.77       2.78       9.54        0.10     0.02   0.636
  S108                      15.00       0.00       0.00       8.38       2.07       1.23       3.30        0.04     0.01   0.220
  S109                      15.00       0.00       0.00       8.39       2.07       1.15       3.22        0.05     0.01   0.214
  S110                      15.00       0.00       0.00       8.49       1.40       3.83       5.23        0.09     0.02   0.349
  S111                      15.00       0.00       0.00       7.40       3.37       2.75       6.12        0.07     0.02   0.408
  S112                      15.00       0.00       0.00       6.51       4.57       3.48       8.05        0.11     0.03   0.537
  S113                      15.00       0.00       0.00       8.39       2.07       1.10       3.17        0.03     0.00   0.211
  S114                      15.00       0.00       0.00       8.93       0.72       4.14       4.86        0.04     0.01   0.324
  S115                      15.00       0.00       0.00       3.03       9.94       2.27      12.21        0.18     0.07   0.814
  S116                      15.00       0.00       0.00       9.25       0.33       3.93       4.26        0.01     0.00   0.284
  S117                      15.00       0.00       0.00       7.44       3.35       2.53       5.88        0.11     0.02   0.392
  S118                      15.00       0.00       0.00       8.76       0.75       5.01       5.76        0.06     0.02   0.384
  S119                      15.00       0.00       0.00       1.42      12.90       1.18      14.08        0.05     0.02   0.938
  S120                      15.00       0.00       0.00       8.35       2.07       1.43       3.50        0.02     0.00   0.233
  S121                      15.00       0.00       0.00       8.43       1.40       4.13       5.54        0.02     0.00   0.369
  S122                      15.00       0.00       0.00       7.28       3.45       3.45       6.91        0.04     0.01   0.460
  S123                      15.00       0.00       0.00       7.26       3.47       3.53       7.00        0.10     0.03   0.466
  S124                      15.00       0.00       0.00       8.20       1.48       5.26       6.74        0.00     0.00   0.449
  S125                      15.00       0.00       0.00       8.79       0.74       4.87       5.61        0.08     0.02   0.374
  S126                      15.00       0.00       0.00       5.03       6.92       3.15      10.07        0.09     0.03   0.671
  S127                      15.00       0.00       0.00       8.99       0.72       3.82       4.54        0.07     0.02   0.303
  S128                      15.00       0.00       0.00       7.42       3.36       2.68       6.04        0.09     0.02   0.402
  S129                      15.00       0.00       0.00       8.72       0.76       5.23       5.99        0.03     0.01   0.399
  S130                      15.00       0.00       0.00       9.27       0.33       3.81       4.14        0.02     0.00   0.276
  S131                      15.00       0.00       0.00       8.55       1.39       3.50       4.89        0.06     0.01   0.326
  S132                      15.00       0.00       0.00       9.32       0.33       3.52       3.85        0.03     0.01   0.257
  S133                      15.00       0.00       0.00       8.40       2.07       1.07       3.14        0.06     0.01   0.209
  S134                      15.00       0.00       0.00       8.38       2.07       1.23       3.30        0.04     0.01   0.220
  S135                      15.00       0.00       0.00       8.32       2.07       1.58       3.66        0.04     0.01   0.244
  S136                      15.00       0.00       0.00       8.21       2.10       2.30       4.39        0.00     0.00   0.293
  S137                      15.00       0.00       0.00       6.46       4.64       3.68       8.32        0.05     0.02   0.555
  S138                      15.00       0.00       0.00       8.96       0.72       3.96       4.68        0.06     0.01   0.312
  S139                      15.00       0.00       0.00       3.02      10.00       2.29      12.29        0.14     0.06   0.819
  S140                      15.00       0.00       0.00       9.43       0.33       2.87       3.20        0.06     0.01   0.213
  S141                      15.00       0.00       0.00       8.94       0.72       4.07       4.79        0.05     0.01   0.319
  S142                      15.00       0.00       0.00       6.53       4.55       3.37       7.91        0.15     0.04   0.528
  S143                      15.00       0.00       0.00       8.37       2.07       1.24       3.31        0.04     0.01   0.221
  S144                      15.00       0.00       0.00       8.39       2.07       1.10       3.17        0.05     0.01   0.211
  S145                      15.00       0.00       0.00       8.71       0.76       5.28       6.04        0.03     0.01   0.403
  S146                      15.00       0.00       0.00       8.33       2.07       1.57       3.64        0.01     0.00   0.243
  S147                      15.00       0.00       0.00       7.28       3.45       3.43       6.88        0.08     0.03   0.459
  S148                      15.00       0.00       0.00       8.33       2.07       1.51       3.58        0.05     0.01   0.239
  S149                      15.00       0.00       0.00       7.15       3.61       4.10       7.71        0.01     0.01   0.514
  S150                      15.00       0.00       0.00       7.25       3.48       3.62       7.10        0.01     0.00   0.473
  S151                      15.00       0.00       0.00       7.28       3.45       3.43       6.88        0.04     0.01   0.459
  S152                      15.00       0.00       0.00       8.37       1.41       4.42       5.83        0.03     0.01   0.389
  S153                      15.00       0.00       0.00       8.35       2.07       1.39       3.46        0.02     0.00   0.230
  S154                      15.00       0.00       0.00       6.46       4.65       3.72       8.38        0.07     0.02   0.558
  S155                      15.00       0.00       0.00       6.41       4.77       3.96       8.73        0.03     0.01   0.582
  S156                      15.00       0.00       0.00       6.55       4.53       3.24       7.77        0.11     0.03   0.518
  S157                      15.00       0.00       0.00       9.36       0.33       3.32       3.65        0.04     0.01   0.244
  S158                      15.00       0.00       0.00       8.56       1.39       3.40       4.80        0.06     0.01   0.320
  S159                      15.00       0.00       0.00       8.35       2.07       1.38       3.45        0.02     0.00   0.230
  S160                      15.00       0.00       0.00       8.76       0.75       5.00       5.74        0.06     0.02   0.383
  S161                      15.00       0.00       0.00       7.20       3.54       3.85       7.39        0.04     0.02   0.492
  S162                      15.00       0.00       0.00       8.39       2.07       1.10       3.16        0.03     0.00   0.211
  S163                      15.00       0.00       0.00       8.66       1.39       2.80       4.19        0.07     0.01   0.280
  S164                      15.00       0.00       0.00       8.40       2.07       1.06       3.13        0.06     0.01   0.208
  S165                      15.00       0.00       0.00       8.78       0.74       4.92       5.67        0.07     0.02   0.378
  S166                      15.00       0.00       0.00       8.39       2.07       1.13       3.20        0.02     0.00   0.213
  S167                      15.00       0.00       0.00       8.31       1.42       4.74       6.16        0.00     0.00   0.411
  S168                      15.00       0.00       0.00       8.39       1.41       4.35       5.76        0.04     0.01   0.384
  S169                      15.00       0.00       0.00       7.39       3.37       2.86       6.24        0.06     0.01   0.416
  S170                      15.00       0.00       0.00       8.24       1.46       5.10       6.56        0.00     0.00   0.437
  S171                      15.00       0.00       0.00       7.27       3.47       3.52       6.99        0.06     0.02   0.466
  S172                      15.00       0.00       0.00       8.24       2.09       2.12       4.20        0.00     0.00   0.280
  S173                      15.00       0.00       0.00       8.37       2.07       1.26       3.33        0.03     0.01   0.222
  S174                      15.00       0.00       0.00       1.42      12.77       1.16      13.92        0.08     0.03   0.928
  S175                      15.00       0.00       0.00       6.49       4.60       3.58       8.18        0.08     0.02   0.546
  S176                      15.00       0.00       0.00       5.03       6.90       3.13      10.03        0.02     0.01   0.669
  S177                      15.00       0.00       0.00       8.33       1.42       4.62       6.04        0.02     0.01   0.403
  S178                      15.00       0.00       0.00       7.22       3.52       3.78       7.30        0.02     0.01   0.487
  S179                      15.00       0.00       0.00       9.40       0.33       3.04       3.37        0.05     0.01   0.225
  S180                      15.00       0.00       0.00       8.96       0.72       3.97       4.69        0.06     0.01   0.312
  S181                      15.00       0.00       0.00       8.78       0.74       4.94       5.69        0.07     0.02   0.379
  S182                      15.00       0.00       0.00       8.80       0.74       4.85       5.59        0.09     0.02   0.372
  S183                      15.00       0.00       0.00       8.35       1.42       4.55       5.96        0.02     0.01   0.397
  S184                      15.00       0.00       0.00       3.02      10.02       2.30      12.32        0.12     0.05   0.821
  S185                      15.00       0.00       0.00       6.56       4.52       3.21       7.73        0.12     0.03   0.515
  S186                      15.00       0.00       0.00       8.40       2.07       1.06       3.13        0.06     0.01   0.209
  S187                      15.00       0.00       0.00       8.32       1.42       4.71       6.13        0.02     0.00   0.409
  S188                      15.00       0.00       0.00       8.41       1.40       4.22       5.63        0.01     0.00   0.375
  S189                      15.00       0.00       0.00       8.51       1.40       3.72       5.12        0.02     0.00   0.341
  S190                      15.00       0.00       0.00       8.77       0.75       4.98       5.73        0.06     0.02   0.382
  S191                      15.00       0.00       0.00       8.37       1.41       4.43       5.84        0.01     0.00   0.389
  S192                      15.00       0.00       0.00       8.38       2.07       1.22       3.29        0.04     0.01   0.220
  S193                      15.00       0.00       0.00       8.69       0.77       5.37       6.14        0.02     0.01   0.409
  S194                      15.00       0.00       0.00       9.40       0.33       3.07       3.39        0.05     0.01   0.226
  S195                      15.00       0.00       0.00       8.60       1.39       3.20       4.59        0.09     0.02   0.306
  S196                      15.00       0.00       0.00       8.34       1.42       4.58       5.99        0.03     0.01   0.400
  S197                      15.00       0.00       0.00       5.06       6.83       3.00       9.82        0.16     0.04   0.655
  S198                      15.00       0.00       0.00       8.41       2.06       0.96       3.03        0.04     0.01   0.202
  S199                      15.00       0.00       0.00       8.39       2.07       1.13       3.20        0.05     0.01   0.213
  S200                      15.00       0.00       0.00       8.56       1.39       3.45       4.84        0.06     0.01   0.323
  S201                      15.00       0.00       0.00       9.01       0.72       3.70       4.42        0.09     0.02   0.294
  S202                      15.00       0.00       0.00       7.36       3.39       2.98       6.37        0.10     0.03   0.424
  S203                      15.00       0.00       0.00       6.59       4.50       3.04       7.54        0.09     0.02   0.503
  S204                      15.00       0.00       0.00       3.02      10.00       2.29      12.30        0.13     0.05   0.820
  S205                      15.00       0.00       0.00       8.35       2.07       1.38       3.45        0.02     0.00   0.230
  S206                      15.00       0.00       0.00       8.79       0.74       4.86       5.60        0.09     0.02   0.373
  S207                      15.00       0.00       0.00       8.90       0.72       4.33       5.05        0.03     0.01   0.337
  S208                      15.00       0.00       0.00       8.99       0.72       3.83       4.55        0.07     0.02   0.303
  S209                      15.00       0.00       0.00       1.42      12.92       1.18      14.11        0.05     0.02   0.940
  S210                      15.00       0.00       0.00       8.83       0.73       4.68       5.41        0.02     0.00   0.361
  S211                      15.00       0.00       0.00       1.43      12.61       1.12      13.74        0.18     0.06   0.916
  S212                      15.00       0.00       0.00       8.29       2.08       1.80       3.88        0.02     0.01   0.259
  S213                      15.00       0.00       0.00       8.40       1.41       4.30       5.71        0.05     0.01   0.380
  S214                      15.00       0.00       0.00       8.22       2.09       2.21       4.30        0.01     0.00   0.287
  S215                      15.00       0.00       0.00       3.01      10.10       2.32      12.43        0.08     0.04   0.828
  S216                      15.00       0.00       0.00       3.03       9.96       2.28      12.24        0.17     0.06   0.816
  S217                      15.00       0.00       0.00       8.50       1.40       3.77       5.17        0.03     0.01   0.345
  S218                      15.00       0.00       0.00       7.24       3.49       3.64       7.13        0.01     0.00   0.475
  S219                      15.00       0.00       0.00       8.45       1.40       4.03       5.43        0.02     0.00   0.362
  S220                      15.00       0.00       0.00       6.58       4.51       3.11       7.62        0.07     0.02   0.508
  S221                      15.00       0.00       0.00       5.02       6.94       3.18      10.12        0.05     0.02   0.674
  S222                      15.00       0.00       0.00       6.46       4.65       3.71       8.36        0.07     0.03   0.557
  S223                      15.00       0.00       0.00       8.98       0.72       3.86       4.58        0.07     0.01   0.305
  S224                      15.00       0.00       0.00       5.09       6.78       2.83       9.61        0.18     0.04   0.641
  S225                      15.00       0.00       0.00       8.45       1.40       4.05       5.45        0.08     0.02   0.364
  S226                      15.00       0.00       0.00       8.40       2.07       1.06       3.12        0.06     0.01   0.208
  S227                      15.00       0.00       0.00       9.28       0.33       3.77       4.10        0.02     0.00   0.274
  S228                      15.00       0.00       0.00       7.20       3.55       3.89       7.44        0.01     0.00   0.496
  S229                      15.00       0.00       0.00       7.32       3.42       3.24       6.66        0.12     0.04   0.444
  S230                      15.00       0.00       0.00       8.37       2.07       1.30       3.37        0.03     0.01   0.225
  S231                      15.00       0.00       0.00       7.19       3.56       3.91       7.47        0.02     0.01   0.498
  S232                      15.00       0.00       0.00       6.53       4.54       3.33       7.88        0.04     0.01   0.525
  S233                      15.00       0.00       0.00       8.79       0.74       4.85       5.59        0.09     0.02   0.373
  S234                      15.00       0.00       0.00       8.49       1.40       3.83       5.23        0.03     0.01   0.349
  S235                      15.00       0.00       0.00       6.50       4.58       3.50       8.07        0.10     0.03   0.538
  S236                      15.00       0.00       0.00       7.12       3.65       4.27       7.92        0.01     0.00   0.528
  S237                      15.00       0.00       0.00       4.96       7.10       3.31      10.41        0.03     0.01   0.694
  S238                      15.00       0.00       0.00       8.37       1.41       4.46       5.87        0.03     0.01   0.392
  S239                      15.00       0.00       0.00       7.24       3.50       3.67       7.16        0.05     0.02   0.477
  S240                      15.00       0.00       0.00       3.02      10.02       2.30      12.32        0.12     0.05   0.821
  S241                      15.00       0.00       0.00       5.03       6.91       3.14      10.05        0.07     0.02   0.670
  S242                      15.00       0.00       0.00       8.53       1.39       3.59       4.99        0.05     0.01   0.333
  S243                      15.00       0.00       0.00       8.53       1.39       3.62       5.01        0.05     0.01   0.334
  S244                      15.00       0.00       0.00       8.97       0.72       3.93       4.65        0.06     0.01   0.310
  S245                      15.00       0.00       0.00       8.98       0.72       3.90       4.61        0.06     0.01   0.308
  S246                      15.00       0.00       0.00       1.43      12.56       1.11      13.67        0.25     0.08   0.911
  S247                      15.00       0.00       0.00       6.51       4.56       3.44       8.00        0.12     0.04   0.534
  S248                      15.00       0.00       0.00       8.34       2.07       1.44       3.51        0.06     0.01   0.234
  S249                      15.00       0.00       0.00       8.41       1.41       4.25       5.66        0.05     0.01   0.377
  S250                      15.00       0.00       0.00       8.55       1.39       3.45       4.85        0.06     0.01   0.323
  S251                      15.00       0.00       0.00       8.37       2.07       1.30       3.37        0.02     0.00   0.224
  S252                      15.00       0.00       0.00       8.90       0.72       4.31       5.04        0.03     0.01   0.336
  S253                      15.00       0.00       0.00       6.61       4.49       2.93       7.42        0.11     0.03   0.495
  S254                      15.00       0.00       0.00       8.71       0.76       5.25       6.01        0.03     0.01   0.401
  S255                      15.00       0.00       0.00       5.02       6.96       3.20      10.16        0.02     0.01   0.678
  S256                      15.00       0.00       0.00       8.78       0.74       4.90       5.64        0.01     0.00   0.376
  S257                      15.00       0.00       0.00       8.43       2.06       0.87       2.93        0.06     0.01   0.195
  S258                      15.00       0.00       0.00       8.74       0.75       5.11       5.87        0.04     0.01   0.391
  S259                      15.00       0.00       0.00       6.42       4.75       3.93       8.67        0.01     0.00   0.578
  S260                      15.00       0.00       0.00       8.29       2.08       1.81       3.89        0.02     0.01   0.260
  S261                      15.00       0.00       0.00       5.11       6.76       2.72       9.48        0.13     0.03   0.632
  S262                      15.00       0.00       0.00       6.55       4.53       3.27       7.80        0.05     0.01   0.520
  S263                      15.00       0.00       0.00       8.47       0.79       5.81       6.60        0.00     0.00   0.440
  S264                      15.00       0.00       0.00       1.43      12.55       1.11      13.66        0.26     0.08   0.911
  S265                      15.00       0.00       0.00       8.35       1.42       4.54       5.96        0.01     0.00   0.397
  S266                      15.00       0.00       0.00       6.47       4.63       3.66       8.29        0.06     0.02   0.553
  S267                      15.00       0.00       0.00       8.49       1.40       3.82       5.22        0.03     0.01   0.348
  S268                      15.00       0.00       0.00       8.45       1.40       4.05       5.45        0.02     0.00   0.364
  S269                      15.00       0.00       0.00       8.64       0.79       5.59       6.37        0.01     0.00   0.425
  S270                      15.00       0.00       0.00       8.60       1.39       3.21       4.60        0.09     0.02   0.307
  S271                      15.00       0.00       0.00       5.12       6.75       2.67       9.43        0.16     0.03   0.628
  S272                      15.00       0.00       0.00       8.42       2.06       0.91       2.97        0.05     0.01   0.198
  S273                      15.00       0.00       0.00       8.56       1.39       3.41       4.80        0.06     0.01   0.320
  S274                      15.00       0.00       0.00       8.42       2.06       0.88       2.94        0.05     0.01   0.196
  S275                      15.00       0.00       0.00       7.13       3.63       4.20       7.83        0.01     0.00   0.522
  S276                      15.00       0.00       0.00       5.06       6.84       3.01       9.85        0.15     0.04   0.657
  S277                      15.00       0.00       0.00       8.40       2.07       1.05       3.12        0.06     0.01   0.208
  S278                      15.00       0.00       0.00       8.34       2.07       1.48       3.55        0.06     0.01   0.237
  S279                      15.00       0.00       0.00       8.32       1.42       4.67       6.09        0.02     0.01   0.406
  S280                      15.00       0.00       0.00       8.97       0.72       3.94       4.66        0.06     0.01   0.311
  S281                      15.00       0.00       0.00       2.99      10.37       2.41      12.77        0.03     0.02   0.852
  S282                      15.00       0.00       0.00       8.53       1.39       3.59       4.98        0.02     0.00   0.332
  S283                      15.00       0.00       0.00       1.43      12.55       1.11      13.66        0.26     0.08   0.911
  S284                      15.00       0.00       0.00       8.42       1.40       4.18       5.58        0.06     0.01   0.372
  S285                      15.00       0.00       0.00       8.34       1.42       4.60       6.01        0.02     0.01   0.401
  S286                      15.00       0.00       0.00       6.56       4.52       3.18       7.70        0.13     0.03   0.513
  S287                      15.00       0.00       0.00       8.41       2.06       0.97       3.04        0.04     0.01   0.202
  S288                      15.00       0.00       0.00       6.41       4.76       3.94       8.70        0.00     0.00   0.580
  S289                      15.00       0.00       0.00       8.50       1.40       3.75       5.14        0.04     0.01   0.343
  S290                      15.00       0.00       0.00       8.80       0.74       4.81       5.55        0.01     0.00   0.370
  S291                      15.00       0.00       0.00       8.80       0.74       4.82       5.56        0.10     0.03   0.370
  S292                      15.00       0.00       0.00       6.50       4.59       3.53       8.11        0.14     0.04   0.541
  S293                      15.00       0.00       0.00       8.40       2.07       1.06       3.13        0.03     0.01   0.209
  S294                      15.00       0.00       0.00       7.28       3.45       3.45       6.90        0.11     0.04   0.460
  S295                      15.00       0.00       0.00       1.43      12.58       1.12      13.70        0.22     0.07   0.913
  S296                      15.00       0.00       0.00       8.36       2.07       1.33       3.40        0.03     0.01   0.227
  S297                      15.00       0.00       0.00       8.34       2.07       1.47       3.54        0.06     0.01   0.236
  S298                      15.00       0.00       0.00       8.73       0.76       5.18       5.94        0.04     0.01   0.396
  S299                      15.00       0.00       0.00       7.40       3.37       2.80       6.17        0.07     0.02   0.411
  S300                      15.00       0.00       0.00       6.60       4.49       2.96       7.45        0.10     0.02   0.497
  S301                      15.00       0.00       0.00       6.38       4.85       4.08       8.93        0.01     0.00   0.595
  S302                      15.00       0.00       0.00       8.45       1.40       4.02       5.42        0.02     0.00   0.361
  S303                      15.00       0.00       0.00       9.01       0.72       3.71       4.43        0.09     0.02   0.295
  S304                      15.00       0.00       0.00       8.45       1.40       4.05       5.45        0.02     0.00   0.364
  S305                      15.00       0.00       0.00       8.38       1.41       4.41       5.82        0.01     0.00   0.388
  S306                      15.00       0.00       0.00       8.57       1.39       3.33       4.73        0.07     0.01   0.315
  S307                      15.00       0.00       0.00       8.45       1.40       4.02       5.42        0.02     0.00   0.361
  S308                      15.00       0.00       0.00       6.55       4.53       3.25       7.78        0.11     0.03   0.519
  S309                      15.00       0.00       0.00       5.00       7.03       3.26      10.29        0.03     0.01   0.686
  S310                      15.00       0.00       0.00       6.50       4.58       3.52       8.10        0.02     0.01   0.540
  S311                      15.00       0.00       0.00       8.56       1.39       3.41       4.80        0.06     0.01   0.320
  S312                      15.00       0.00       0.00       8.46       1.40       3.97       5.37        0.10     0.02   0.358
  S313                      15.00       0.00       0.00       6.51       4.57       3.45       8.02        0.12     0.04   0.534
  S314                      15.00       0.00       0.00       5.05       6.85       3.04       9.89        0.19     0.05   0.659
  S315                      15.00       0.00       0.00       8.36       2.07       1.35       3.42        0.03     0.01   0.228
  S316                      15.00       0.00       0.00       9.00       0.72       3.78       4.49        0.08     0.02   0.299
  S317                      15.00       0.00       0.00       8.95       0.72       4.04       4.76        0.05     0.01   0.318
  S318                      15.00       0.00       0.00       9.00       0.72       3.74       4.45        0.08     0.02   0.297
  S319                      15.00       0.00       0.00       5.08       6.80       2.91       9.71        0.13     0.03   0.647
  S320                      15.00       0.00       0.00       7.23       3.51       3.71       7.21        0.04     0.01   0.481
  S321                      15.00       0.00       0.00       8.32       2.08       1.63       3.70        0.01     0.00   0.247
  S322                      15.00       0.00       0.00       8.83       0.73       4.66       5.39        0.02     0.00   0.360
  S323                      15.00       0.00       0.00       8.38       2.07       1.20       3.27        0.04     0.01   0.218
  S324                      15.00       0.00       0.00       6.57       4.52       3.17       7.69        0.13     0.03   0.512
  S325                      15.00       0.00       0.00       8.59       1.39       3.25       4.64        0.08     0.02   0.309
  S326                      15.00       0.00       0.00       7.26       3.47       3.57       7.04        0.03     0.01   0.470
  S327                      15.00       0.00       0.00       6.47       4.62       3.64       8.26        0.10     0.03   0.551
  S328                      15.00       0.00       0.00       7.34       3.40       3.10       6.50        0.08     0.02   0.433
  S329                      15.00       0.00       0.00       6.48       4.61       3.60       8.21        0.11     0.04   0.547
  S330                      15.00       0.00       0.00       8.60       1.39       3.22       4.61        0.09     0.02   0.307
  S331                      15.00       0.00       0.00       8.38       1.41       4.39       5.80        0.04     0.01   0.387
  S332                      15.00       0.00       0.00       7.45       3.35       2.51       5.86        0.12     0.02   0.390
  S333                      15.00       0.00       0.00       6.59       4.50       3.02       7.52        0.09     0.02   0.501
  S334                      15.00       0.00       0.00       6.47       4.63       3.66       8.29        0.06     0.02   0.553
  S335                      15.00       0.00       0.00       8.74       0.75       5.13       5.88        0.04     0.01   0.392
  S336                      15.00       0.00       0.00       6.49       4.59       3.55       8.15        0.09     0.03   0.543
  S337                      15.00       0.00       0.00       8.41       1.40       4.22       5.63        0.01     0.00   0.375
  S338                      15.00       0.00       0.00       1.43      12.57       1.11      13.68        0.24     0.07   0.912
  S339                      15.00       0.00       0.00       8.13       1.51       5.40       6.90        0.00     0.00   0.460
  S340                      15.00       0.00       0.00       8.57       1.39       3.35       4.74        0.07     0.01   0.316
  S341                      15.00       0.00       0.00       8.70       0.77       5.31       6.08        0.02     0.01   0.405
  S342                      15.00       0.00       0.00       1.43      12.62       1.12      13.74        0.18     0.06   0.916
  S343                      15.00       0.00       0.00       6.51       4.57       3.48       8.05        0.11     0.03   0.537
  S344                      15.00       0.00       0.00       7.20       3.55       3.89       7.44        0.04     0.01   0.496
  S345                      15.00       0.00       0.00       8.51       1.40       3.70       5.10        0.04     0.01   0.340
  S346                      15.00       0.00       0.00       8.42       1.40       4.17       5.57        0.06     0.02   0.371
  S347                      15.00       0.00       0.00       8.60       1.39       3.19       4.58        0.09     0.02   0.305
  S348                      15.00       0.00       0.00       8.95       0.72       4.02       4.74        0.05     0.01   0.316
  S349                      15.00       0.00       0.00       9.41       0.33       2.98       3.31        0.05     0.01   0.221
  S350                      15.00       0.00       0.00       8.47       1.40       3.91       5.31        0.03     0.01   0.354
  S351                      15.00       0.00       0.00       6.63       4.48       2.84       7.32        0.14     0.03   0.488
  S352                      15.00       0.00       0.00       8.96       0.72       4.01       4.72        0.05     0.01   0.315
  S353                      15.00       0.00       0.00       8.40       2.07       1.06       3.12        0.06     0.01   0.208
  S354                      15.00       0.00       0.00       8.39       1.41       4.33       5.73        0.05     0.01   0.382
  S355                      15.00       0.00       0.00       6.56       4.52       3.22       7.74        0.12     0.03   0.516
  S356                      15.00       0.00       0.00       8.56       1.39       3.42       4.81        0.06     0.01   0.321
  S357                      15.00       0.00       0.00       8.44       1.40       4.09       5.49        0.02     0.00   0.366
  S358                      15.00       0.00       0.00       9.00       0.72       3.74       4.46        0.08     0.02   0.297
  S359                      15.00       0.00       0.00       8.28       1.44       4.91       6.35        0.00     0.00   0.423
  S360                      15.00       0.00       0.00       8.59       1.39       3.24       4.63        0.08     0.02   0.309
  S361                      15.00       0.00       0.00       8.58       1.39       3.28       4.67        0.08     0.01   0.312
  S362                      15.00       0.00       0.00       8.65       1.39       2.87       4.26        0.07     0.01   0.284
  S363                      15.00       0.00       0.00       8.45       1.40       4.05       5.45        0.06     0.01   0.363
  S364                      15.00       0.00       0.00       9.38       0.33       3.18       3.51        0.04     0.01   0.234
  S365                      15.00       0.00       0.00       8.55       1.39       3.46       4.85        0.06     0.01   0.323
  S366                      15.00       0.00       0.00       9.40       0.33       3.07       3.40        0.05     0.01   0.227
  S367                      15.00       0.00       0.00       8.51       1.40       3.70       5.10        0.04     0.01   0.340
  S368                      15.00       0.00       0.00       9.35       0.33       3.33       3.66        0.03     0.01   0.244
  S369                      15.00       0.00       0.00       3.03       9.94       2.27      12.21        0.19     0.07   0.814
  S370                      15.00       0.00       0.00       5.06       6.82       2.97       9.80        0.18     0.05   0.653
  S371                      15.00       0.00       0.00       6.41       4.78       3.97       8.75        0.02     0.01   0.583
  S372                      15.00       0.00       0.00       8.54       1.39       3.56       4.95        0.05     0.01   0.330
  S373                      15.00       0.00       0.00       1.43      12.56       1.11      13.67        0.25     0.08   0.911
  S374                      15.00       0.00       0.00       4.92       7.16       3.35      10.51        0.02     0.01   0.701
  S375                      15.00       0.00       0.00       6.44       4.69       3.82       8.51        0.03     0.01   0.567
  S376                      15.00       0.00       0.00       3.04       9.89       2.26      12.15        0.24     0.09   0.810
  S377                      15.00       0.00       0.00       8.48       1.40       3.84       5.24        0.03     0.01   0.349
  S378                      15.00       0.00       0.00       8.46       1.40       3.96       5.36        0.10     0.02   0.357
  S379                      15.00       0.00       0.00       8.35       2.07       1.39       3.46        0.02     0.00   0.230
  S380                      15.00       0.00       0.00       7.21       3.53       3.82       7.36        0.05     0.02   0.490
  S381                      15.00       0.00       0.00       8.54       1.39       3.51       4.91        0.05     0.01   0.327
  S382                      15.00       0.00       0.00       7.38       3.38       2.92       6.30        0.12     0.03   0.420
  S383                      15.00       0.00       0.00       8.14       2.14       2.69       4.82        0.00     0.00   0.321
  S384                      15.00       0.00       0.00       6.52       4.55       3.38       7.94        0.07     0.02   0.529
  S385                      15.00       0.00       0.00       8.64       0.79       5.59       6.37        0.01     0.00   0.425
  S386                      15.00       0.00       0.00       5.09       6.78       2.82       9.60        0.09     0.02   0.640
  S387                      15.00       0.00       0.00       8.33       1.42       4.66       6.08        0.02     0.01   0.406
  S388                      15.00       0.00       0.00       8.32       1.42       4.71       6.13        0.02     0.00   0.409
  S389                      15.00       0.00       0.00       9.00       0.72       3.73       4.45        0.08     0.02   0.296
  S390                      15.00       0.00       0.00       5.07       6.82       2.96       9.78        0.04     0.01   0.652
  S391                      15.00       0.00       0.00       9.43       0.33       2.90       3.22        0.06     0.01   0.215
  S392                      15.00       0.00       0.00       8.31       2.08       1.69       3.77        0.01     0.00   0.251
  S393                      15.00       0.00       0.00       8.57       1.39       3.39       4.78        0.07     0.01   0.319
  S394                      15.00       0.00       0.00       5.12       6.76       2.70       9.45        0.14     0.03   0.630
  S395                      15.00       0.00       0.00       1.42      12.93       1.19      14.12        0.05     0.02   0.941
  S396                      15.00       0.00       0.00       7.17       3.59       4.02       7.60        0.03     0.01   0.507
  S397                      15.00       0.00       0.00       8.41       2.06       0.98       3.04        0.04     0.01   0.203
  S398                      15.00       0.00       0.00       6.45       4.67       3.76       8.42        0.06     0.02   0.562
  S399                      15.00       0.00       0.00       8.31       2.08       1.66       3.74        0.01     0.00   0.249
  S400                      15.00       0.00       0.00       8.49       1.40       3.79       5.19        0.03     0.01   0.346
  S401                      15.00       0.00       0.00       6.59       4.50       3.05       7.55        0.08     0.02   0.503
  S402                      15.00       0.00       0.00       8.98       0.72       3.87       4.58        0.07     0.01   0.306
  S403                      15.00       0.00       0.00       5.07       6.81       2.95       9.77        0.10     0.03   0.651
  S404                      15.00       0.00       0.00       7.29       3.44       3.38       6.82        0.09     0.03   0.455
  S405                      15.00       0.00       0.00       5.04       6.88       3.10       9.99        0.09     0.03   0.666
  S406                      15.00       0.00       0.00       8.46       1.40       3.97       5.37        0.09     0.02   0.358
  S407                      15.00       0.00       0.00       8.43       2.06       0.86       2.92        0.06     0.01   0.195
  S408                      15.00       0.00       0.00       8.34       2.07       1.48       3.55        0.02     0.00   0.237
  S409                      15.00       0.00       0.00       8.45       1.40       4.00       5.40        0.09     0.02   0.360
  S410                      15.00       0.00       0.00       8.37       2.07       1.28       3.35        0.03     0.01   0.223
  S411                      15.00       0.00       0.00       8.51       1.40       3.71       5.11        0.04     0.01   0.340
  S412                      15.00       0.00       0.00       8.57       1.39       3.34       4.73        0.07     0.01   0.316
  S413                      15.00       0.00       0.00       8.32       1.42       4.70       6.12        0.02     0.01   0.408
  S414                      15.00       0.00       0.00       8.58       1.39       3.30       4.69        0.04     0.01   0.313
  S415                      15.00       0.00       0.00       7.28       3.45       3.44       6.88        0.08     0.03   0.459
  S416                      15.00       0.00       0.00       5.02       6.95       3.19      10.14        0.02     0.01   0.676
  S417                      15.00       0.00       0.00       6.57       4.51       3.12       7.63        0.07     0.02   0.509
  S418                      15.00       0.00       0.00       8.45       1.40       4.03       5.43        0.02     0.00   0.362
  S419                      15.00       0.00       0.00       7.20       3.55       3.88       7.43        0.04     0.02   0.495
  S420                      15.00       0.00       0.00       3.03       9.95       2.27      12.22        0.18     0.07   0.815
  S421                      15.00       0.00       0.00       7.33       3.41       3.15       6.55        0.03     0.01   0.437
  S422                      15.00       0.00       0.00       6.48       4.62       3.63       8.24        0.10     0.03   0.550
  S423                      15.00       0.00       0.00       7.37       3.38       2.95       6.34        0.11     0.03   0.422
  S424                      15.00       0.00       0.00       8.43       1.40       4.11       5.52        0.07     0.02   0.368
  S425                      15.00       0.00       0.00       8.31       1.42       4.73       6.15        0.02     0.00   0.410
  S426                      15.00       0.00       0.00       5.12       6.75       2.68       9.44        0.15     0.03   0.629
  S427                      15.00       0.00       0.00       8.38       2.07       1.22       3.29        0.04     0.01   0.219
  S428                      15.00       0.00       0.00       8.32       2.08       1.62       3.70        0.04     0.01   0.247
  S429                      15.00       0.00       0.00       8.32       2.07       1.59       3.67        0.01     0.00   0.244
  S430                      15.00       0.00       0.00       6.54       4.54       3.31       7.85        0.04     0.01   0.523
  S431                      15.00       0.00       0.00       8.36       2.07       1.36       3.43        0.01     0.00   0.229
  S432                      15.00       0.00       0.00       6.60       4.49       2.97       7.47        0.10     0.02   0.498
  S433                      15.00       0.00       0.00       8.32       2.08       1.62       3.69        0.01     0.00   0.246
  S434                      15.00       0.00       0.00       8.23       1.46       5.14       6.61        0.00     0.00   0.440
  S435                      15.00       0.00       0.00       3.04       9.91       2.26      12.17        0.22     0.08   0.811
  S436                      15.00       0.00       0.00       8.47       1.40       3.94       5.34        0.08     0.02   0.356
  S437                      15.00       0.00       0.00       8.46       1.40       3.96       5.36        0.10     0.02   0.357
  S438                      15.00       0.00       0.00       6.38       4.85       4.10       8.95        0.01     0.01   0.597
  S439                      15.00       0.00       0.00       5.03       6.89       3.12      10.01        0.08     0.02   0.667
  S440                      15.00       0.00       0.00       8.84       0.73       4.62       5.35        0.02     0.00   0.357
  S441                      15.00       0.00       0.00       6.52       4.56       3.42       7.98        0.07     0.02   0.532
  S442                      15.00       0.00       0.00       8.39       2.07       1.16       3.23        0.04     0.01   0.215
  S443                      15.00       0.00       0.00       8.43       1.40       4.12       5.52        0.07     0.02   0.368
  S444                      15.00       0.00       0.00       8.37       1.41       4.44       5.85        0.04     0.01   0.390
  S445                      15.00       0.00       0.00       8.75       0.75       5.09       5.84        0.05     0.01   0.389
  S446                      15.00       0.00       0.00       8.76       0.75       5.04       5.79        0.05     0.02   0.386
  S447                      15.00       0.00       0.00       8.93       0.72       4.12       4.84        0.04     0.01   0.323
  S448                      15.00       0.00       0.00       8.41       1.40       4.23       5.63        0.06     0.01   0.375
  S449                      15.00       0.00       0.00       8.64       1.39       2.97       4.36        0.06     0.01   0.290
  S450                      15.00       0.00       0.00       5.10       6.77       2.80       9.57        0.09     0.02   0.638
  S451                      15.00       0.00       0.00       9.23       0.34       4.06       4.39        0.01     0.00   0.293
  S452                      15.00       0.00       0.00       9.43       0.33       2.90       3.22        0.06     0.01   0.215
  S453                      15.00       0.00       0.00       8.78       0.74       4.91       5.65        0.08     0.02   0.377
  S454                      15.00       0.00       0.00       5.05       6.85       3.04       9.88        0.13     0.04   0.659
  S455                      15.00       0.00       0.00       5.01       7.00       3.24      10.23        0.05     0.02   0.682
  S456                      15.00       0.00       0.00       8.29       1.43       4.85       6.28        0.00     0.00   0.419
  S457                      15.00       0.00       0.00       8.58       1.39       3.30       4.69        0.08     0.01   0.313
  S458                      15.00       0.00       0.00       8.38       2.07       1.21       3.28        0.04     0.01   0.218
  S459                      15.00       0.00       0.00       9.40       0.33       3.05       3.38        0.05     0.01   0.225
  S460                      15.00       0.00       0.00       7.29       3.44       3.39       6.83        0.09     0.03   0.455
  S461                      15.00       0.00       0.00       8.45       1.40       4.03       5.43        0.09     0.02   0.362
  S462                      15.00       0.00       0.00       8.32       1.42       4.69       6.11        0.00     0.00   0.407
  S463                      15.00       0.00       0.00       8.59       1.39       3.26       4.65        0.08     0.01   0.310
  S464                      15.00       0.00       0.00       3.01      10.09       2.32      12.40        0.09     0.04   0.827
  S465                      15.00       0.00       0.00       4.95       7.11       3.32      10.44        0.01     0.00   0.696
  S466                      15.00       0.00       0.00       8.49       1.40       3.81       5.21        0.10     0.02   0.347
  S467                      15.00       0.00       0.00       8.66       0.78       5.49       6.27        0.01     0.00   0.418
  S468                      15.00       0.00       0.00       8.45       1.40       4.03       5.43        0.02     0.00   0.362
  S469                      15.00       0.00       0.00       8.58       1.39       3.29       4.68        0.08     0.01   0.312
  S470                      15.00       0.00       0.00       1.43      12.61       1.12      13.73        0.19     0.06   0.915
  S471                      15.00       0.00       0.00       9.43       0.33       2.90       3.22        0.06     0.01   0.215
  S472                      15.00       0.00       0.00       8.76       0.75       5.04       5.78        0.06     0.02   0.386
  S473                      15.00       0.00       0.00       9.38       0.33       3.19       3.51        0.04     0.01   0.234
  S474                      15.00       0.00       0.00       8.99       0.72       3.82       4.54        0.07     0.02   0.302
  S475                      15.00       0.00       0.00       4.93       7.13       3.34      10.47        0.02     0.01   0.698
  S476                      15.00       0.00       0.00       8.55       1.39       3.47       4.86        0.06     0.01   0.324
  S477                      15.00       0.00       0.00       7.41       3.36       2.71       6.07        0.08     0.02   0.405
  S478                      15.00       0.00       0.00       8.66       1.39       2.85       4.23        0.07     0.01   0.282
  S479                      15.00       0.00       0.00       8.33       2.07       1.56       3.63        0.04     0.01   0.242
  S480                      15.00       0.00       0.00       8.29       2.08       1.81       3.89        0.02     0.01   0.259
  S481                      15.00       0.00       0.00       8.96       0.72       4.01       4.72        0.05     0.01   0.315
  S482                      15.00       0.00       0.00       7.24       3.50       3.67       7.16        0.05     0.02   0.477
  S483                      15.00       0.00       0.00       5.08       6.80       2.90       9.70        0.13     0.03   0.646
  S484                      15.00       0.00       0.00       6.49       4.60       3.56       8.16        0.13     0.04   0.544
  S485                      15.00       0.00       0.00       1.42      12.95       1.19      14.14        0.04     0.02   0.943
  S486                      15.00       0.00       0.00       8.98       0.72       3.88       4.59        0.07     0.01   0.306
  S487                      15.00       0.00       0.00       8.35       2.07       1.41       3.48        0.02     0.00   0.232
  S488                      15.00       0.00       0.00       8.78       0.74       4.91       5.65        0.08     0.02   0.377
  S489                      15.00       0.00       0.00       7.38       3.38       2.91       6.29        0.12     0.03   0.419
  S490                      15.00       0.00       0.00       8.54       1.39       3.52       4.91        0.05     0.01   0.328
  S491                      15.00       0.00       0.00       8.93       0.72       4.17       4.89        0.04     0.01   0.326
  S492                      15.00       0.00       0.00       8.51       1.40       3.70       5.09        0.04     0.01   0.339
  S493                      15.00       0.00       0.00       8.74       0.75       5.11       5.86        0.05     0.01   0.391
  S494                      15.00       0.00       0.00       7.29       3.44       3.37       6.81        0.09     0.03   0.454
  S495                      15.00       0.00       0.00       9.41       0.33       3.01       3.34        0.05     0.01   0.222
  S496                      15.00       0.00       0.00       3.04       9.90       2.26      12.16        0.23     0.08   0.811
  S497                      15.00       0.00       0.00       7.33       3.41       3.20       6.61        0.07     0.02   0.441
  S498                      15.00       0.00       0.00       8.40       1.41       4.28       5.69        0.01     0.00   0.379
  S499                      15.00       0.00       0.00       9.43       0.33       2.87       3.20        0.06     0.01   0.213
  S500                      15.00       0.00       0.00       8.38       2.07       1.20       3.27        0.04     0.01   0.218
  S501                      15.00       0.00       0.00       8.38       1.41       4.37       5.78        0.04     0.01   0.385
  S502                      15.00       0.00       0.00       5.01       7.01       3.25      10.25        0.03     0.01   0.683
  S503                      15.00       0.00       0.00       8.45       1.40       4.02       5.42        0.09     0.02   0.361
  S504                      15.00       0.00       0.00       3.04       9.92       2.27      12.19        0.20     0.07   0.813
  S505                      15.00       0.00       0.00       9.35       0.33       3.36       3.69        0.03     0.01   0.246
  S506                      15.00       0.00       0.00       2.97      10.62       2.53      13.16        0.01     0.01   0.877
  S507                      15.00       0.00       0.00       8.59       1.39       3.26       4.65        0.08     0.01   0.310
  S508                      15.00       0.00       0.00       8.41       1.41       4.24       5.65        0.06     0.01   0.377
  S509                      15.00       0.00       0.00       8.79       0.74       4.87       5.61        0.08     0.02   0.374
  S510                      15.00       0.00       0.00       3.03       9.94       2.27      12.21        0.18     0.07   0.814
  S511                      15.00       0.00       0.00       6.61       4.49       2.92       7.41        0.11     0.03   0.494
  S512                      15.00       0.00       0.00       5.06       6.84       3.01       9.85        0.07     0.02   0.656
  S513                      15.00       0.00       0.00       8.99       0.72       3.82       4.53        0.07     0.02   0.302
  S514                      15.00       0.00       0.00       8.45       1.40       4.01       5.41        0.09     0.02   0.360
  S515                      15.00       0.00       0.00       6.49       4.59       3.56       8.15        0.13     0.04   0.543
  S516                      15.00       0.00       0.00       8.34       2.07       1.44       3.52        0.06     0.01   0.234
  S517                      15.00       0.00       0.00       8.71       0.76       5.28       6.05        0.03     0.01   0.403
  S518                      15.00       0.00       0.00       8.48       1.40       3.86       5.26        0.09     0.02   0.351
  S519                      15.00       0.00       0.00       3.02      10.05       2.31      12.36        0.10     0.05   0.824
  S520                      15.00       0.00       0.00       8.70       0.77       5.32       6.08        0.02     0.01   0.406
  S521                      15.00       0.00       0.00       8.38       2.07       1.19       3.25        0.04     0.01   0.217
  S522                      15.00       0.00       0.00       8.54       1.39       3.56       4.95        0.05     0.01   0.330
  S523                      15.00       0.00       0.00       8.81       0.74       4.78       5.52        0.10     0.03   0.368
  S524                      15.00       0.00       0.00       5.03       6.91       3.15      10.06        0.10     0.03   0.671
  S525                      15.00       0.00       0.00       8.47       1.40       3.92       5.32        0.10     0.02   0.355
  S526                      15.00       0.00       0.00       8.33       2.07       1.52       3.59        0.02     0.00   0.240
  S527                      15.00       0.00       0.00       8.24       1.45       5.08       6.54        0.00     0.00   0.436
  S528                      15.00       0.00       0.00       8.38       2.07       1.18       3.24        0.02     0.00   0.216
  S529                      15.00       0.00       0.00       8.34       1.42       4.58       5.99        0.01     0.00   0.399
  S530                      15.00       0.00       0.00       8.44       1.40       4.07       5.47        0.02     0.00   0.364
  S531                      15.00       0.00       0.00       8.39       1.41       4.35       5.76        0.04     0.01   0.384
  S532                      15.00       0.00       0.00       8.91       0.72       4.25       4.97        0.04     0.01   0.331
  S533                      15.00       0.00       0.00       8.53       1.39       3.61       5.01        0.02     0.00   0.334
  S534                      15.00       0.00       0.00       8.37       2.07       1.29       3.36        0.03     0.01   0.224
  S535                      15.00       0.00       0.00       5.04       6.86       3.07       9.93        0.05     0.02   0.662
  S536                      15.00       0.00       0.00       8.34       2.07       1.48       3.55        0.06     0.01   0.237
  S537                      15.00       0.00       0.00       1.43      12.59       1.12      13.70        0.21     0.07   0.914
  S538                      15.00       0.00       0.00       7.32       3.42       3.24       6.66        0.06     0.02   0.444
  S539                      15.00       0.00       0.00       7.16       3.60       4.06       7.65        0.02     0.01   0.510
  S540                      15.00       0.00       0.00       7.28       3.45       3.45       6.91        0.11     0.04   0.460
  S541                      15.00       0.00       0.00       8.44       1.40       4.06       5.46        0.06     0.01   0.364
  S542                      15.00       0.00       0.00       8.33       2.07       1.54       3.62        0.02     0.00   0.241
  S543                      15.00       0.00       0.00       8.35       2.07       1.43       3.50        0.02     0.00   0.234
  S544                      15.00       0.00       0.00       8.38       2.07       1.21       3.28        0.04     0.01   0.219
  S545                      15.00       0.00       0.00       8.37       1.41       4.46       5.87        0.01     0.00   0.391
  S546                      15.00       0.00       0.00       8.46       1.40       3.99       5.39        0.09     0.02   0.359
  S547                      15.00       0.00       0.00       7.05       3.65       4.58       8.23        0.00     0.00   0.549
  S548                      15.00       0.00       0.00       5.02       6.96       3.20      10.16        0.07     0.02   0.678
  S549                      15.00       0.00       0.00       5.10       6.77       2.79       9.56        0.10     0.02   0.637
  S550                      15.00       0.00       0.00       3.02      10.00       2.29      12.29        0.13     0.05   0.820
  S551                      15.00       0.00       0.00       8.33       1.42       4.63       6.05        0.02     0.01   0.403
  S552                      15.00       0.00       0.00       2.97      10.62       2.53      13.16        0.01     0.01   0.877
  S553                      15.00       0.00       0.00       8.37       2.07       1.26       3.33        0.02     0.00   0.222
  S554                      15.00       0.00       0.00       3.03       9.96       2.28      12.24        0.16     0.06   0.816
  S555                      15.00       0.00       0.00       8.37       1.41       4.47       5.88        0.03     0.01   0.392
  S556                      15.00       0.00       0.00       3.00      10.21       2.36      12.57        0.05     0.03   0.838
  S557                      15.00       0.00       0.00       8.42       2.06       0.95       3.01        0.04     0.01   0.201
  S558                      15.00       0.00       0.00       8.50       1.40       3.78       5.18        0.03     0.01   0.345
  S559                      15.00       0.00       0.00       7.08       3.67       4.45       8.12        0.00     0.00   0.541
  S560                      15.00       0.00       0.00       8.39       2.07       1.11       3.18        0.05     0.01   0.212
  S561                      15.00       0.00       0.00       9.01       0.72       3.70       4.41        0.09     0.02   0.294
  S562                      15.00       0.00       0.00       8.75       0.75       5.07       5.82        0.05     0.01   0.388
  S563                      15.00       0.00       0.00       7.32       3.42       3.24       6.66        0.12     0.04   0.444
  S564                      15.00       0.00       0.00       8.38       1.41       4.39       5.80        0.04     0.01   0.387
  S565                      15.00       0.00       0.00       8.71       0.76       5.28       6.04        0.03     0.01   0.403
  S566                      15.00       0.00       0.00       8.25       1.45       5.04       6.49        0.01     0.00   0.433
  S567                      15.00       0.00       0.00       9.38       0.33       3.21       3.54        0.04     0.01   0.236
  S568                      15.00       0.00       0.00       8.75       0.75       5.09       5.84        0.05     0.01   0.389
  S569                      15.00       0.00       0.00       8.42       2.06       0.93       3.00        0.04     0.01   0.200
  S570                      15.00       0.00       0.00       9.38       0.33       3.19       3.52        0.04     0.01   0.235
  S571                      15.00       0.00       0.00       8.75       0.75       5.09       5.84        0.05     0.01   0.389
  S572                      15.00       0.00       0.00       7.23       3.51       3.71       7.21        0.02     0.01   0.481
  S573                      15.00       0.00       0.00       5.07       6.82       2.96       9.78        0.10     0.02   0.652
  S574                      15.00       0.00       0.00       5.07       6.81       2.96       9.77        0.10     0.02   0.652
  S575                      15.00       0.00       0.00       3.03       9.94       2.27      12.21        0.19     0.07   0.814
  S576                      15.00       0.00       0.00       5.05       6.85       3.05       9.91        0.06     0.02   0.661
  S577                      15.00       0.00       0.00       6.41       4.77       3.96       8.73        0.03     0.01   0.582
  S578                      15.00       0.00       0.00       1.41      13.09       1.22      14.30        0.03     0.01   0.954
  S579                      15.00       0.00       0.00       8.55       1.39       3.49       4.88        0.06     0.01   0.325
  S580                      15.00       0.00       0.00       5.07       6.81       2.93       9.74        0.11     0.03   0.649
  S581                      15.00       0.00       0.00       8.44       1.40       4.09       5.49        0.08     0.02   0.366
  S582                      15.00       0.00       0.00       8.65       0.78       5.57       6.36        0.01     0.00   0.424
  S583                      15.00       0.00       0.00       1.41      13.16       1.23      14.39        0.02     0.01   0.960
  S584                      15.00       0.00       0.00       8.95       0.72       4.05       4.77        0.05     0.01   0.318
  S585                      15.00       0.00       0.00       1.43      12.65       1.13      13.79        0.14     0.05   0.919
  S586                      15.00       0.00       0.00       8.22       1.47       5.17       6.63        0.00     0.00   0.442
  S587                      15.00       0.00       0.00       8.57       1.39       3.36       4.75        0.07     0.01   0.317
  S588                      15.00       0.00       0.00       8.43       1.40       4.11       5.52        0.07     0.02   0.368
  S589                      15.00       0.00       0.00       9.37       0.33       3.25       3.57        0.04     0.01   0.238
  S590                      15.00       0.00       0.00       4.94       7.12       3.33      10.46        0.02     0.01   0.697
  S591                      15.00       0.00       0.00       8.55       1.39       3.46       4.86        0.06     0.01   0.324
  S592                      15.00       0.00       0.00       8.43       2.06       0.86       2.93        0.06     0.01   0.195
  S593                      15.00       0.00       0.00       7.33       3.41       3.16       6.56        0.03     0.01   0.438
  S594                      15.00       0.00       0.00       8.99       0.72       3.80       4.51        0.07     0.02   0.301
  S595                      15.00       0.00       0.00       9.26       0.33       3.88       4.22        0.02     0.00   0.281
  S596                      15.00       0.00       0.00       6.54       4.54       3.32       7.87        0.09     0.02   0.524
[...]
  S848                      15.00       0.00       0.00       8.45       1.40       4.03       5.43        0.08     0.02   0.362
  S849                      15.00       0.00       0.00       5.03       6.89       3.12      10.01        0.12     0.04   0.667
  S850                      15.00       0.00       0.00       8.76       0.75       5.02       5.77        0.06     0.02   0.385
  S851                      15.00       0.00       0.00       8.56       1.39       3.45       4.84        0.06     0.01   0.323
  S852                      15.00       0.00       0.00       8.40       2.07       1.03       3.09        0.03     0.01   0.206
  S853                      15.00       0.00       0.00       7.32       3.41       3.21       6.63        0.03     0.01   0.442
  S854                      15.00       0.00       0.00       8.59       1.39       3.24       4.63        0.08     0.02   0.309
  S855                      15.00       0.00       0.00       8.93       0.72       4.17       4.89        0.04     0.01   0.326
  S856                      15.00       0.00       0.00       6.49       4.59       3.55       8.14        0.13     0.04   0.543
  S857                      15.00       0.00       0.00       6.61       4.49       2.91       7.40        0.12     0.03   0.493
  S858                      15.00       0.00       0.00       5.03       6.91       3.14      10.04        0.04     0.01   0.670
  S859                      15.00       0.00       0.00       7.23       3.50       3.70       7.20        0.04     0.02   0.480
  S860                      15.00       0.00       0.00       3.04       9.91       2.26      12.17        0.23     0.08   0.811
  S861                      15.00       0.00       0.00       7.27       3.46       3.50       6.97        0.07     0.02   0.464
  S862                      15.00       0.00       0.00       8.81       0.74       4.78       5.51        0.01     0.00   0.367
  S863                      15.00       0.00       0.00       5.05       6.85       3.05       9.90        0.18     0.05   0.660
  S864                      15.00       0.00       0.00       8.53       1.39       3.57       4.97        0.05     0.01   0.331
  S865                      15.00       0.00       0.00       5.02       6.96       3.20      10.15        0.02     0.01   0.677
  S866                      15.00       0.00       0.00       8.36       1.41       4.48       5.90        0.03     0.01   0.393
  S867                      15.00       0.00       0.00       3.02      10.02       2.30      12.32        0.12     0.05   0.821
  S868                      15.00       0.00       0.00       5.07       6.80       2.92       9.73        0.12     0.03   0.648
  S869                      15.00       0.00       0.00       3.03       9.95       2.28      12.22        0.17     0.07   0.815
  S870                      15.00       0.00       0.00       9.00       0.72       3.74       4.46        0.08     0.02   0.297
  S871                      15.00       0.00       0.00       9.18       0.34       4.33       4.67        0.01     0.00   0.311
  S872                      15.00       0.00       0.00       8.22       1.47       5.17       6.63        0.00     0.00   0.442
  S873                      15.00       0.00       0.00       8.57       1.39       3.36       4.75        0.07     0.01   0.317
  S874                      15.00       0.00       0.00       8.54       1.39       3.56       4.95        0.05     0.01   0.330
  S875                      15.00       0.00       0.00       8.38       2.07       1.21       3.28        0.04     0.01   0.218
  S876                      15.00       0.00       0.00       5.02       6.94       3.18      10.12        0.08     0.03   0.674
  S877                      15.00       0.00       0.00       8.53       1.39       3.58       4.97        0.05     0.01   0.331
  S878                      15.00       0.00       0.00       7.26       3.47       3.57       7.04        0.09     0.03   0.470
  S879                      15.00       0.00       0.00       5.05       6.85       3.05       9.91        0.18     0.05   0.660
  S880                      15.00       0.00       0.00       6.52       4.56       3.40       7.95        0.03     0.01   0.530
  S881                      15.00       0.00       0.00       7.28       3.45       3.45       6.90        0.04     0.01   0.460
  S882                      15.00       0.00       0.00       7.32       3.41       3.21       6.63        0.06     0.02   0.442
  S883                      15.00       0.00       0.00       8.38       1.41       4.37       5.78        0.04     0.01   0.385
  S884                      15.00       0.00       0.00       7.33       3.41       3.20       6.61        0.13     0.04   0.441
  S885                      15.00       0.00       0.00       8.43       1.40       4.13       5.54        0.02     0.00   0.369
  S886                      15.00       0.00       0.00       1.42      12.87       1.17      14.04        0.06     0.02   0.936
  S887                      15.00       0.00       0.00       8.78       0.74       4.92       5.66        0.07     0.02   0.378
  S888                      15.00       0.00       0.00       8.33       1.42       4.63       6.05        0.02     0.01   0.403
  S889                      15.00       0.00       0.00       2.98      10.43       2.43      12.86        0.02     0.01   0.857
  S890                      15.00       0.00       0.00       5.05       6.85       3.05       9.90        0.18     0.05   0.660
  S891                      15.00       0.00       0.00       8.24       2.09       2.09       4.18        0.01     0.00   0.278
  S892                      15.00       0.00       0.00       8.81       0.74       4.79       5.53        0.10     0.03   0.369
  S893                      15.00       0.00       0.00       5.05       6.85       3.04       9.88        0.19     0.05   0.659
  S894                      15.00       0.00       0.00       7.29       3.44       3.41       6.85        0.13     0.04   0.457
  S895                      15.00       0.00       0.00       9.39       0.33       3.14       3.47        0.04     0.01   0.231
  S896                      15.00       0.00       0.00       8.42       1.40       4.16       5.56        0.02     0.00   0.371
  S897                      15.00       0.00       0.00       5.12       6.75       2.68       9.44        0.15     0.03   0.629
  S898                      15.00       0.00       0.00       8.42       2.06       0.94       3.01        0.04     0.01   0.200
  S899                      15.00       0.00       0.00       8.79       0.74       4.86       5.60        0.09     0.02   0.373
  S900                      15.00       0.00       0.00       9.39       0.33       3.10       3.43        0.05     0.01   0.228
  S901                      15.00       0.00       0.00       7.33       3.41       3.20       6.61        0.07     0.02   0.441
  S902                      15.00       0.00       0.00       8.46       1.40       3.97       5.37        0.02     0.01   0.358
  S903                      15.00       0.00       0.00       7.26       3.47       3.53       7.00        0.06     0.02   0.466
  S904                      15.00       0.00       0.00       1.43      12.67       1.14      13.81        0.13     0.05   0.921
  S905                      15.00       0.00       0.00       7.27       3.46       3.51       6.97        0.10     0.03   0.465
  S906                      15.00       0.00       0.00       8.36       1.41       4.51       5.92        0.03     0.01   0.395
  S907                      15.00       0.00       0.00       3.01      10.12       2.33      12.45        0.08     0.04   0.830
  S908                      15.00       0.00       0.00       5.01       7.01       3.25      10.26        0.03     0.01   0.684
  S909                      15.00       0.00       0.00       8.42       1.40       4.20       5.61        0.06     0.01   0.374
  S910                      15.00       0.00       0.00       6.48       4.61       3.60       8.21        0.11     0.04   0.548
  S911                      15.00       0.00       0.00       8.37       2.07       1.24       3.31        0.04     0.01   0.221
  S912                      15.00       0.00       0.00       9.34       0.33       3.41       3.74        0.03     0.01   0.249
  S913                      15.00       0.00       0.00       8.37       2.07       1.28       3.35        0.02     0.00   0.223
  S914                      15.00       0.00       0.00       7.37       3.38       2.93       6.31        0.12     0.03   0.420
  S915                      15.00       0.00       0.00       8.43       0.79       5.86       6.65        0.00     0.00   0.443
  S916                      15.00       0.00       0.00       8.71       0.76       5.28       6.05        0.03     0.01   0.403
  S917                      15.00       0.00       0.00       8.43       1.40       4.11       5.52        0.07     0.02   0.368
  S918                      15.00       0.00       0.00       8.50       0.79       5.77       6.57        0.00     0.00   0.438
  S919                      15.00       0.00       0.00       8.41       2.06       0.97       3.03        0.04     0.01   0.202
  S920                      15.00       0.00       0.00       3.03       9.95       2.28      12.23        0.17     0.07   0.815
  S921                      15.00       0.00       0.00       9.36       0.33       3.31       3.64        0.04     0.01   0.242
  S922                      15.00       0.00       0.00       5.06       6.83       3.01       9.85        0.15     0.04   0.656
  S923                      15.00       0.00       0.00       8.50       1.40       3.75       5.14        0.04     0.01   0.343
  S924                      15.00       0.00       0.00       7.28       3.45       3.43       6.88        0.08     0.03   0.458
  S925                      15.00       0.00       0.00       8.55       1.39       3.47       4.86        0.06     0.01   0.324
  S926                      15.00       0.00       0.00       8.35       2.07       1.41       3.48        0.01     0.00   0.232
  S927                      15.00       0.00       0.00       3.01      10.07       2.31      12.39        0.09     0.04   0.826
  S928                      15.00       0.00       0.00       5.08       6.79       2.88       9.67        0.15     0.03   0.644
  S929                      15.00       0.00       0.00       8.87       0.73       4.48       5.20        0.02     0.01   0.347
  S930                      15.00       0.00       0.00       8.39       2.07       1.16       3.23        0.04     0.01   0.215
  S931                      15.00       0.00       0.00       9.38       0.33       3.19       3.51        0.04     0.01   0.234
  S932                      15.00       0.00       0.00       9.30       0.33       3.63       3.97        0.02     0.00   0.264
  S933                      15.00       0.00       0.00       8.60       1.39       3.20       4.59        0.09     0.02   0.306
  S934                      15.00       0.00       0.00       6.55       4.53       3.25       7.78        0.11     0.03   0.519
  S935                      15.00       0.00       0.00       6.52       4.56       3.42       7.98        0.07     0.02   0.532
  S936                      15.00       0.00       0.00       5.10       6.77       2.80       9.57        0.09     0.02   0.638
  S937                      15.00       0.00       0.00       4.92       7.16       3.35      10.51        0.01     0.01   0.701
  S938                      15.00       0.00       0.00       6.59       4.50       3.01       7.51        0.09     0.02   0.501
  S939                      15.00       0.00       0.00       8.56       1.39       3.42       4.82        0.06     0.01   0.321
  S940                      15.00       0.00       0.00       8.35       2.07       1.37       3.44        0.03     0.00   0.229
  S941                      15.00       0.00       0.00       7.29       3.45       3.42       6.86        0.02     0.01   0.458
  S942                      15.00       0.00       0.00       8.38       1.41       4.40       5.81        0.04     0.01   0.387
  S943                      15.00       0.00       0.00       3.04       9.91       2.26      12.17        0.22     0.08   0.811
  S944                      15.00       0.00       0.00       5.09       6.78       2.82       9.60        0.19     0.04   0.640
  S945                      15.00       0.00       0.00       7.41       3.36       2.72       6.08        0.08     0.02   0.406
  S946                      15.00       0.00       0.00       5.09       6.78       2.86       9.64        0.16     0.04   0.643
  S947                      15.00       0.00       0.00       9.41       0.33       3.02       3.35        0.05     0.01   0.223
  S948                      15.00       0.00       0.00       5.08       6.79       2.87       9.66        0.07     0.02   0.644
  S949                      15.00       0.00       0.00       8.55       1.39       3.45       4.85        0.06     0.01   0.323
  S950                      15.00       0.00       0.00       8.74       0.75       5.13       5.89        0.04     0.01   0.392
  S951                      15.00       0.00       0.00       8.91       0.72       4.25       4.98        0.03     0.01   0.332
  S952                      15.00       0.00       0.00       9.01       0.72       3.71       4.43        0.09     0.02   0.295
  S953                      15.00       0.00       0.00       9.30       0.33       3.64       3.98        0.02     0.00   0.265
  S954                      15.00       0.00       0.00       7.27       3.46       3.49       6.95        0.10     0.03   0.463
  S955                      15.00       0.00       0.00       5.08       6.79       2.89       9.69        0.14     0.03   0.646
  S956                      15.00       0.00       0.00       8.92       0.72       4.18       4.90        0.04     0.01   0.327
  S957                      15.00       0.00       0.00       7.16       3.60       4.06       7.66        0.01     0.00   0.511
  S958                      15.00       0.00       0.00       3.03       9.93       2.27      12.20        0.20     0.07   0.813
  S959                      15.00       0.00       0.00       1.42      12.72       1.15      13.86        0.11     0.04   0.924
  S960                      15.00       0.00       0.00       8.84       0.73       4.61       5.34        0.02     0.00   0.356
  S961                      15.00       0.00       0.00       6.50       4.58       3.52       8.10        0.15     0.04   0.540
  S962                      15.00       0.00       0.00       8.76       0.75       5.02       5.77        0.06     0.02   0.385
  S963                      15.00       0.00       0.00       8.34       1.42       4.60       6.01        0.02     0.01   0.401
  S964                      15.00       0.00       0.00       8.37       1.41       4.46       5.87        0.03     0.01   0.391
  S965                      15.00       0.00       0.00       8.90       0.72       4.28       5.01        0.03     0.01   0.334
  S966                      15.00       0.00       0.00       8.37       2.07       1.24       3.31        0.04     0.01   0.221
  S967                      15.00       0.00       0.00       7.36       3.39       3.01       6.40        0.10     0.03   0.426
  S968                      15.00       0.00       0.00       8.42       2.06       0.94       3.01        0.04     0.01   0.201
  S969                      15.00       0.00       0.00       8.49       1.40       3.78       5.18        0.10     0.02   0.345
  S970                      15.00       0.00       0.00       1.41      13.41       1.28      14.69        0.01     0.01   0.979
  S971                      15.00       0.00       0.00       8.76       0.75       5.00       5.75        0.06     0.02   0.383
  S972                      15.00       0.00       0.00       1.43      12.64       1.13      13.77        0.15     0.05   0.918
  S973                      15.00       0.00       0.00       8.57       1.39       3.34       4.74        0.07     0.01   0.316
  S974                      15.00       0.00       0.00       8.53       0.79       5.74       6.53        0.00     0.00   0.435
  S975                      15.00       0.00       0.00       5.00       7.03       3.27      10.30        0.04     0.02   0.687
  S976                      15.00       0.00       0.00       8.46       1.40       3.99       5.39        0.02     0.01   0.360
  S977                      15.00       0.00       0.00       9.38       0.33       3.20       3.53        0.04     0.01   0.235
  S978                      15.00       0.00       0.00       3.04       9.92       2.27      12.19        0.20     0.07   0.813
  S979                      15.00       0.00       0.00       7.36       3.39       3.03       6.42        0.09     0.03   0.428
  S980                      15.00       0.00       0.00       8.99       0.72       3.82       4.53        0.07     0.02   0.302
  S981                      15.00       0.00       0.00       8.75       0.75       5.09       5.85        0.05     0.01   0.390
  S982                      15.00       0.00       0.00       5.06       6.82       2.98       9.81        0.17     0.04   0.654
  S983                      15.00       0.00       0.00       8.56       1.39       3.40       4.80        0.06     0.01   0.320
  S984                      15.00       0.00       0.00       7.27       3.46       3.49       6.95        0.07     0.02   0.463
  S985                      15.00       0.00       0.00       9.10       0.35       4.76       5.10        0.00     0.00   0.340
  S986                      15.00       0.00       0.00       8.33       1.42       4.62       6.04        0.02     0.01   0.403
  S987                      15.00       0.00       0.00       7.22       3.52       3.77       7.29        0.05     0.02   0.486
  S988                      15.00       0.00       0.00       8.42       2.06       0.90       2.96        0.05     0.01   0.197
  S989                      15.00       0.00       0.00       8.95       0.72       4.02       4.74        0.05     0.01   0.316
  S990                      15.00       0.00       0.00       4.99       7.05       3.28      10.33        0.04     0.01   0.689
  S991                      15.00       0.00       0.00       8.27       2.08       1.91       3.99        0.01     0.00   0.266
  S992                      15.00       0.00       0.00       1.43      12.55       1.11      13.66        0.27     0.08   0.910
  S993                      15.00       0.00       0.00       8.30       1.43       4.78       6.21        0.01     0.00   0.414
  S994                      15.00       0.00       0.00       6.51       4.57       3.46       8.03        0.03     0.01   0.535
  S995                      15.00       0.00       0.00       8.44       1.40       4.06       5.46        0.06     0.01   0.364
  S996                      15.00       0.00       0.00       8.81       0.74       4.78       5.52        0.10     0.03   0.368
  S997                      15.00       0.00       0.00       8.55       1.39       3.47       4.87        0.06     0.01   0.324
  S998                      15.00       0.00       0.00       2.97      10.66       2.57      13.24        0.01     0.01   0.882
  S999                      15.00       0.00       0.00       6.46       4.64       3.68       8.32        0.05     0.02   0.555
  S1000                     15.00       0.00       0.00       8.50       1.40       3.77       5.16        0.04     0.01   0.344
  S1001                     15.00       0.00       0.00       1.42      12.99       1.20      14.19        0.04     0.02   0.946
  

  Analysis begun on:  Tue May 23 12:22:27 2023
  Analysis ended on:  Tue May 23 12:22:28 2023
  Total elapsed time: 00:00:01