
  OWA STORM WATER MANAGEMENT MODEL - VERSION v5.2.3 (OWA 2023-03-28)
  ------------------------------------------------------------

  WARNING 09: time series interval greater than recording interval for Rain Gage Raingage2
  WARNING 01: wet weather time step reduced to recording interval for Rain Gage Raingage2
  
  ****************
  Analysis Options
  ****************
  Flow Units ............... CMS
  Process Models:
    Rainfall/Runoff ........ YES
    RDII ................... NO
    Snowmelt ............... NO
    Groundwater ............ NO
    Flow Routing ........... NO
    Water Quality .......... NO
  Infiltration Method ...... MODIFIED_GREEN_AMPT
  Starting Date ............ 06/17/2022 00:00:00
  Ending Date .............. 06/17/2022 12:00:00
  Antecedent Dry Days ...... 0.0
  Report Time Step ......... 00:15:00
  Wet Time Step ............ 00:01:00
  Dry Time Step ............ 01:00:00
  
  
  **************************        Volume         Depth
  Runoff Quantity Continuity     hectare-m            mm
  **************************     ---------       -------
  Total Precipitation ......         6.378         6.333
  Evaporation Loss .........         0.000         0.000
  Infiltration Loss ........         4.902         4.867
  Surface Runoff ...........         1.391         1.381
  Final Storage ............         0.105         0.104
  Continuity Error (%) .....        -0.306
  
  
  **************************        Volume        Volume
  Flow Routing Continuity        hectare-m      10^6 ltr
  **************************     ---------     ---------
  Dry Weather Inflow .......         0.000         0.000
  Wet Weather Inflow .......         1.391        13.909
  Groundwater Inflow .......         0.000         0.000
  RDII Inflow ..............         0.000         0.000
  External Inflow ..........         0.000         0.000
  External Outflow .........         1.391        13.909
  Flooding Loss ............         0.000         0.000
  Evaporation Loss .........         0.000         0.000
  Exfiltration Loss ........         0.000         0.000
  Initial Stored Volume ....         0.000         0.000
  Final Stored Volume ......         0.000         0.000
  Continuity Error (%) .....         0.000
  
  
  ***************************
  Subcatchment Runoff Summary
  ***************************
  
  ------------------------------------------------------------------------------------------------------------------------------
                            Total      Total      Total      Total     Imperv       Perv      Total       Total     Peak  Runoff
                           Precip      Runon       Evap      Infil     Runoff     Runoff     Runoff      Runoff   Runoff   Coeff
  Subcatchment                 mm         mm         mm         mm         mm         mm         mm    10^6 ltr      CMS
  ------------------------------------------------------------------------------------------------------------------------------
  S1                         6.33       0.00       0.00       5.07       1.20       0.00       1.20        0.01     0.00   0.190
  S2                         6.33       0.00       0.00       3.48       2.81       0.00       2.81        0.04     0.01   0.444
  S3                         6.33       0.00       0.00       6.01       0.27       0.00       0.27        0.00     0.00   0.043
  S4                         6.33       0.00       0.00       5.38       0.77       0.00       0.77        0.00     0.00   0.122
  S5                         6.33       0.00       0.00       4.91       1.38       0.00       1.38        0.02     0.01   0.218
  S6                         6.33       0.00       0.00       5.70       0.52       0.00       0.52        0.00     0.00   0.082
  S7                         6.33       0.00       0.00       6.01       0.27       0.00       0.27        0.00     0.00   0.042
  S8                         6.33       0.00       0.00       5.38       0.77       0.00       0.77        0.01     0.00   0.121
  S9                         6.33       0.00       0.00       3.48       2.82       0.00       2.82        0.03     0.00   0.445
  S10                        6.33       0.00       0.00       3.48       2.83       0.00       2.83        0.05     0.01   0.446
  S11                        6.33       0.00       0.00       4.43       1.84       0.00       1.84        0.02     0.00   0.290
  S12                        6.33       0.00       0.00       6.01       0.28       0.00       0.28        0.00     0.00   0.045
  S13                        6.33       0.00       0.00       5.70       0.52       0.00       0.52        0.01     0.00   0.082
  S14                        6.33       0.00       0.00       6.19       0.12       0.00       0.12        0.00     0.00   0.019
  S15                        6.33       0.00       0.00       3.48       2.81       0.00       2.81        0.04     0.01   0.444
  S16                        6.33       0.00       0.00       4.43       1.86       0.00       1.86        0.02     0.01   0.293
  S17                        6.33       0.00       0.00       5.38       0.77       0.00       0.77        0.00     0.00   0.122
  S18                        6.33       0.00       0.00       6.01       0.27       0.00       0.27        0.00     0.00   0.042
  S19                        6.33       0.00       0.00       4.91       1.36       0.00       1.36        0.02     0.00   0.215
  S20                        6.33       0.00       0.00       3.48       2.83       0.00       2.83        0.01     0.00   0.447
  S21                        6.33       0.00       0.00       5.70       0.52       0.00       0.52        0.01     0.00   0.082
  S22                        6.33       0.00       0.00       5.70       0.52       0.00       0.52        0.01     0.00   0.082
  S23                        6.33       0.00       0.00       4.91       1.36       0.00       1.36        0.02     0.00   0.215
  S24                        6.33       0.00       0.00       2.22       4.08       0.00       4.08        0.02     0.01   0.644
  S25                        6.33       0.00       0.00       4.91       1.48       0.00       1.48        0.00     0.00   0.234
  S26                        6.33       0.00       0.00       4.43       1.89       0.00       1.89        0.00     0.00   0.299
  S27                        6.33       0.00       0.00       4.43       1.85       0.00       1.85        0.04     0.01   0.292
  S28                        6.33       0.00       0.00       5.38       0.77       0.00       0.77        0.00     0.00   0.121
  S29                        6.33       0.00       0.00       6.01       0.27       0.00       0.27        0.00     0.00   0.042
  S30                        6.33       0.00       0.00       3.48       2.82       0.00       2.82        0.05     0.01   0.445
  S31                        6.33       0.00       0.00       3.48       2.94       0.00       2.94        0.00     0.00   0.464
  S32                        6.33       0.00       0.00       5.70       0.52       0.00       0.52        0.01     0.00   0.082
  S33                        6.33       0.00       0.00       3.48       2.82       0.00       2.82        0.02     0.00   0.446
  S34                        6.33       0.00       0.00       5.70       0.52       0.00       0.52        0.01     0.00   0.082
  S35                        6.33       0.00       0.00       2.22       4.02       0.00       4.02        0.08     0.02   0.635
  S36                        6.33       0.00       0.00       4.91       1.36       0.00       1.36        0.01     0.00   0.215
  S37                        6.33       0.00       0.00       5.38       0.76       0.00       0.76        0.01     0.00   0.121
  S38                        6.33       0.00       0.00       5.38       0.76       0.00       0.76        0.01     0.00   0.121
  S39                        6.33       0.00       0.00       6.19       0.12       0.00       0.12        0.00     0.00   0.019
  S40                        6.33       0.00       0.00       3.48       2.84       0.00       2.84        0.03     0.01   0.448
  S41                        6.33       0.00       0.00       5.70       0.52       0.00       0.52        0.01     0.00   0.082
  S42                        6.33       0.00       0.00       2.22       4.02       0.00       4.02        0.07     0.02   0.635
  S43                        6.33       0.00       0.00       3.48       2.80       0.00       2.80        0.06     0.01   0.443
  S44                        6.33       0.00       0.00       5.38       0.77       0.00       0.77        0.01     0.00   0.121
  S45                        6.33       0.00       0.00       4.43       1.86       0.00       1.86        0.02     0.01   0.294
  S46                        6.33       0.00       0.00       5.38       0.77       0.00       0.77        0.01     0.00   0.121
  S47                        6.33       0.00       0.00       4.91       1.37       0.00       1.37        0.03     0.01   0.217
  S48                        6.33       0.00       0.00       6.01       0.27       0.00       0.27        0.00     0.00   0.043
  S49                        6.33       0.00       0.00       3.48       2.82       0.00       2.82        0.05     0.01   0.445
  S50                        6.33       0.00       0.00       4.91       1.36       0.00       1.36        0.03     0.01   0.214
  S51                        6.33       0.00       0.00       2.22       4.04       0.00       4.04        0.05     0.01   0.637
  S52                        6.33       0.00       0.00       5.70       0.53       0.00       0.53        0.00     0.00   0.083
  S53                        6.33       0.00       0.00       6.19       0.12       0.00       0.12        0.00     0.00   0.019
  S54                        6.33       0.00       0.00       4.43       1.89       0.00       1.89        0.01     0.00   0.298
  S55                        6.33       0.00       0.00       6.01       0.27       0.00       0.27        0.00     0.00   0.043
  S56                        6.33       0.00       0.00       5.38       0.77       0.00       0.77        0.00     0.00   0.122
  S57                        6.33       0.00       0.00       5.70       0.52       0.00       0.52        0.01     0.00   0.082
  S58                        6.33       0.00       0.00       4.91       1.37       0.00       1.37        0.01     0.00   0.217
  S59                        6.33       0.00       0.00       5.70       0.52       0.00       0.52        0.00     0.00   0.083
  S60                        6.33       0.00       0.00       6.19       0.12       0.00       0.12        0.00     0.00   0.019
  S61                        6.33       0.00       0.00       5.38       0.77       0.00       0.77        0.01     0.00   0.121
  S62                        6.33       0.00       0.00       5.38       0.77       0.00       0.77        0.00     0.00   0.121
  S63                        6.33       0.00       0.00       4.91       1.47       0.00       1.47        0.00     0.00   0.233
  S64                        6.33       0.00       0.00       5.70       0.52       0.00       0.52        0.01     0.00   0.082
  S65                        6.33       0.00       0.00       6.19       0.13       0.00       0.13        0.00     0.00   0.020
  S66                        6.33       0.00       0.00       5.70       0.52       0.00       0.52        0.00     0.00   0.083
  S67                        6.33       0.00       0.00       4.43       1.85       0.00       1.85        0.02     0.01   0.292
  S68                        6.33       0.00       0.00       5.70       0.53       0.00       0.53        0.00     0.00   0.084
  S69                        6.33       0.00       0.00       3.48       2.81       0.00       2.81        0.05     0.01   0.444
  S70                        6.33       0.00       0.00       2.22       4.03       0.00       4.03        0.06     0.02   0.636
  S71                        6.33       0.00       0.00       5.38       0.77       0.00       0.77        0.01     0.00   0.121
  S72                        6.33       0.00       0.00       3.48       2.88       0.00       2.88        0.01     0.00   0.455
  S73                        6.33       0.00       0.00       6.01       0.28       0.00       0.28        0.00     0.00   0.044
  S74                        6.33       0.00       0.00       1.06       5.20       0.00       5.20        0.02     0.01   0.821
  S75                        6.33       0.00       0.00       3.48       2.84       0.00       2.84        0.02     0.00   0.448
  S76                        6.33       0.00       0.00       1.06       5.12       0.00       5.12        0.10     0.02   0.809
  S77                        6.33       0.00       0.00       5.38       0.77       0.00       0.77        0.00     0.00   0.121
  S78                        6.33       0.00       0.00       5.38       0.77       0.00       0.77        0.00     0.00   0.121
  S79                        6.33       0.00       0.00       3.48       2.86       0.00       2.86        0.01     0.00   0.452
  S80                        6.33       0.00       0.00       5.38       0.77       0.00       0.77        0.01     0.00   0.121
  S81                        6.33       0.00       0.00       5.70       0.52       0.00       0.52        0.00     0.00   0.082
  S82                        6.33       0.00       0.00       4.91       1.37       0.00       1.37        0.01     0.00   0.217
  S83                        6.33       0.00       0.00       2.22       4.03       0.00       4.03        0.06     0.01   0.636
  S84                        6.33       0.00       0.00       3.48       2.83       0.00       2.83        0.02     0.00   0.447
  S85                        6.33       0.00       0.00       1.06       5.16       0.00       5.16        0.04     0.01   0.814
  S86                        6.33       0.00       0.00       6.01       0.27       0.00       0.27        0.00     0.00   0.043
  S87                        6.33       0.00       0.00       4.43       1.85       0.00       1.85        0.03     0.01   0.292
  S88                        6.33       0.00       0.00       6.01       0.27       0.00       0.27        0.00     0.00   0.043
  S89                        6.33       0.00       0.00       4.91       1.35       0.00       1.35        0.03     0.00   0.213
  S90                        6.33       0.00       0.00       5.70       0.52       0.00       0.52        0.01     0.00   0.082
  S91                        6.33       0.00       0.00       5.70       0.52       0.00       0.52        0.01     0.00   0.082
  S92                        6.33       0.00       0.00       6.01       0.27       0.00       0.27        0.00     0.00   0.042
  S93                        6.33       0.00       0.00       1.06       5.29       0.00       5.29        0.01     0.00   0.835
  S94                        6.33       0.00       0.00       6.01       0.27       0.00       0.27        0.00     0.00   0.042
  S95                        6.33       0.00       0.00       5.70       0.52       0.00       0.52        0.01     0.00   0.082
  S96                        6.33       0.00       0.00       5.70       0.52       0.00       0.52        0.01     0.00   0.082
  S97                        6.33       0.00       0.00       6.01       0.27       0.00       0.27        0.00     0.00   0.043
  S98                        6.33       0.00       0.00       3.48       2.82       0.00       2.82        0.06     0.01   0.445
  S99                        6.33       0.00       0.00       2.22       4.02       0.00       4.02        0.07     0.02   0.635
  S100                       6.33       0.00       0.00       3.48       2.82       0.00       2.82        0.05     0.01   0.445
  S101                       6.33       0.00       0.00       4.91       1.37       0.00       1.37        0.01     0.00   0.216
  S102                       6.33       0.00       0.00       4.91       1.35       0.00       1.35        0.02     0.00   0.214
  S103                       6.33       0.00       0.00       6.01       0.27       0.00       0.27        0.01     0.00   0.043
  S104                       6.33       0.00       0.00       5.70       0.52       0.00       0.52        0.01     0.00   0.082
  S105                       6.33       0.00       0.00       5.70       0.52       0.00       0.52        0.01     0.00   0.082
  S106                       6.33       0.00       0.00       6.19       0.12       0.00       0.12        0.00     0.00   0.019
  S107                       6.33       0.00       0.00       3.48       2.81       0.00       2.81        0.03     0.00   0.443
  S108                       6.33       0.00       0.00       5.38       0.77       0.00       0.77        0.01     0.00   0.121
  S109                       6.33       0.00       0.00       5.38       0.77       0.00       0.77        0.01     0.00   0.121
  S110                       6.33       0.00       0.00       5.70       0.52       0.00       0.52        0.01     0.00   0.082
  S111                       6.33       0.00       0.00       4.91       1.35       0.00       1.35        0.02     0.00   0.214
  S112                       6.33       0.00       0.00       4.43       1.86       0.00       1.86        0.03     0.01   0.293
  S113                       6.33       0.00       0.00       5.38       0.76       0.00       0.76        0.01     0.00   0.121
  S114                       6.33       0.00       0.00       6.01       0.27       0.00       0.27        0.00     0.00   0.042
  S115                       6.33       0.00       0.00       2.22       4.03       0.00       4.03        0.06     0.02   0.636
  S116                       6.33       0.00       0.00       6.19       0.12       0.00       0.12        0.00     0.00   0.019
  S117                       6.33       0.00       0.00       4.91       1.35       0.00       1.35        0.03     0.00   0.213
  S118                       6.33       0.00       0.00       6.01       0.27       0.00       0.27        0.00     0.00   0.043
  S119                       6.33       0.00       0.00       1.06       5.20       0.00       5.20        0.02     0.01   0.822
  S120                       6.33       0.00       0.00       5.38       0.77       0.00       0.77        0.00     0.00   0.121
  S121                       6.33       0.00       0.00       5.70       0.52       0.00       0.52        0.00     0.00   0.082
  S122                       6.33       0.00       0.00       4.91       1.38       0.00       1.38        0.01     0.00   0.217
  S123                       6.33       0.00       0.00       4.91       1.38       0.00       1.38        0.02     0.01   0.218
  S124                       6.33       0.00       0.00       5.70       0.54       0.00       0.54        0.00     0.00   0.085
  S125                       6.33       0.00       0.00       6.01       0.27       0.00       0.27        0.00     0.00   0.043
  S126                       6.33       0.00       0.00       3.48       2.84       0.00       2.84        0.03     0.01   0.449
  S127                       6.33       0.00       0.00       6.01       0.27       0.00       0.27        0.00     0.00   0.042
  S128                       6.33       0.00       0.00       4.91       1.35       0.00       1.35        0.02     0.00   0.214
  S129                       6.33       0.00       0.00       6.01       0.28       0.00       0.28        0.00     0.00   0.044
  S130                       6.33       0.00       0.00       6.19       0.12       0.00       0.12        0.00     0.00   0.019
  S131                       6.33       0.00       0.00       5.70       0.52       0.00       0.52        0.01     0.00   0.082
  S132                       6.33       0.00       0.00       6.19       0.12       0.00       0.12        0.00     0.00   0.019
  S133                       6.33       0.00       0.00       5.38       0.76       0.00       0.76        0.01     0.00   0.121
  S134                       6.33       0.00       0.00       5.38       0.77       0.00       0.77        0.01     0.00   0.121
  S135                       6.33       0.00       0.00       5.38       0.77       0.00       0.77        0.01     0.00   0.121
  S136                       6.33       0.00       0.00       5.38       0.77       0.00       0.77        0.00     0.00   0.122
  S137                       6.33       0.00       0.00       4.43       1.87       0.00       1.87        0.01     0.00   0.296
  S138                       6.33       0.00       0.00       6.01       0.27       0.00       0.27        0.00     0.00   0.042
  S139                       6.33       0.00       0.00       2.22       4.04       0.00       4.04        0.04     0.01   0.638
  S140                       6.33       0.00       0.00       6.19       0.12       0.00       0.12        0.00     0.00   0.019
  S141                       6.33       0.00       0.00       6.01       0.27       0.00       0.27        0.00     0.00   0.042
  S142                       6.33       0.00       0.00       4.43       1.85       0.00       1.85        0.04     0.01   0.292
  S143                       6.33       0.00       0.00       5.38       0.77       0.00       0.77        0.01     0.00   0.121
  S144                       6.33       0.00       0.00       5.38       0.76       0.00       0.76        0.01     0.00   0.121
  S145                       6.33       0.00       0.00       6.01       0.28       0.00       0.28        0.00     0.00   0.044
  S146                       6.33       0.00       0.00       5.38       0.77       0.00       0.77        0.00     0.00   0.121
  S147                       6.33       0.00       0.00       4.91       1.37       0.00       1.37        0.02     0.00   0.217
  S148                       6.33       0.00       0.00       5.38       0.77       0.00       0.77        0.01     0.00   0.121
  S149                       6.33       0.00       0.00       4.91       1.43       0.00       1.43        0.00     0.00   0.225
  S150                       6.33       0.00       0.00       4.91       1.38       0.00       1.38        0.00     0.00   0.219
  S151                       6.33       0.00       0.00       4.91       1.37       0.00       1.37        0.01     0.00   0.217
  S152                       6.33       0.00       0.00       5.70       0.52       0.00       0.52        0.00     0.00   0.083
  S153                       6.33       0.00       0.00       5.38       0.77       0.00       0.77        0.01     0.00   0.121
  S154                       6.33       0.00       0.00       4.43       1.88       0.00       1.88        0.02     0.00   0.296
  S155                       6.33       0.00       0.00       4.43       1.91       0.00       1.91        0.01     0.00   0.302
  S156                       6.33       0.00       0.00       4.43       1.85       0.00       1.85        0.03     0.01   0.291
  S157                       6.33       0.00       0.00       6.19       0.12       0.00       0.12        0.00     0.00   0.019
  S158                       6.33       0.00       0.00       5.70       0.52       0.00       0.52        0.01     0.00   0.082
  S159                       6.33       0.00       0.00       5.38       0.77       0.00       0.77        0.01     0.00   0.121
  S160                       6.33       0.00       0.00       6.01       0.27       0.00       0.27        0.00     0.00   0.043
  S161                       6.33       0.00       0.00       4.91       1.40       0.00       1.40        0.01     0.00   0.221
  S162                       6.33       0.00       0.00       5.38       0.76       0.00       0.76        0.01     0.00   0.121
  S163                       6.33       0.00       0.00       5.70       0.52       0.00       0.52        0.01     0.00   0.082
  S164                       6.33       0.00       0.00       5.38       0.76       0.00       0.76        0.01     0.00   0.121
  S165                       6.33       0.00       0.00       6.01       0.27       0.00       0.27        0.00     0.00   0.043
  S166                       6.33       0.00       0.00       5.38       0.76       0.00       0.76        0.01     0.00   0.121
  S167                       6.33       0.00       0.00       5.70       0.53       0.00       0.53        0.00     0.00   0.083
  S168                       6.33       0.00       0.00       5.70       0.52       0.00       0.52        0.00     0.00   0.083
  S169                       6.33       0.00       0.00       4.91       1.36       0.00       1.36        0.01     0.00   0.214
  S170                       6.33       0.00       0.00       5.70       0.53       0.00       0.53        0.00     0.00   0.084
  S171                       6.33       0.00       0.00       4.91       1.38       0.00       1.38        0.01     0.00   0.218
  S172                       6.33       0.00       0.00       5.38       0.77       0.00       0.77        0.00     0.00   0.122
  S173                       6.33       0.00       0.00       5.38       0.77       0.00       0.77        0.01     0.00   0.121
  S174                       6.33       0.00       0.00       1.06       5.17       0.00       5.17        0.03     0.01   0.816
  S175                       6.33       0.00       0.00       4.43       1.86       0.00       1.86        0.02     0.00   0.294
  S176                       6.33       0.00       0.00       3.48       2.84       0.00       2.84        0.00     0.00   0.448
  S177                       6.33       0.00       0.00       5.70       0.53       0.00       0.53        0.00     0.00   0.083
  S178                       6.33       0.00       0.00       4.91       1.39       0.00       1.39        0.00     0.00   0.220
  S179                       6.33       0.00       0.00       6.19       0.12       0.00       0.12        0.00     0.00   0.019
  S180                       6.33       0.00       0.00       6.01       0.27       0.00       0.27        0.00     0.00   0.042
  S181                       6.33       0.00       0.00       6.01       0.27       0.00       0.27        0.00     0.00   0.043
  S182                       6.33       0.00       0.00       6.01       0.27       0.00       0.27        0.00     0.00   0.043
  S183                       6.33       0.00       0.00       5.70       0.52       0.00       0.52        0.00     0.00   0.083
  S184                       6.33       0.00       0.00       2.22       4.05       0.00       4.05        0.04     0.01   0.639
  S185                       6.33       0.00       0.00       4.43       1.84       0.00       1.84        0.03     0.01   0.291
  S186                       6.33       0.00       0.00       5.38       0.76       0.00       0.76        0.01     0.00   0.121
  S187                       6.33       0.00       0.00       5.70       0.53       0.00       0.53        0.00     0.00   0.083
  S188                       6.33       0.00       0.00       5.70       0.52       0.00       0.52        0.00     0.00   0.082
  S189                       6.33       0.00       0.00       5.70       0.52       0.00       0.52        0.00     0.00   0.082
  S190                       6.33       0.00       0.00       6.01       0.27       0.00       0.27        0.00     0.00   0.043
  S191                       6.33       0.00       0.00       5.70       0.52       0.00       0.52        0.00     0.00   0.083
  S192                       6.33       0.00       0.00       5.38       0.77       0.00       0.77        0.01     0.00   0.121
  S193                       6.33       0.00       0.00       6.01       0.28       0.00       0.28        0.00     0.00   0.044
  S194                       6.33       0.00       0.00       6.19       0.12       0.00       0.12        0.00     0.00   0.019
  S195                       6.33       0.00       0.00       5.70       0.52       0.00       0.52        0.01     0.00   0.082
  S196                       6.33       0.00       0.00       5.70       0.52       0.00       0.52        0.00     0.00   0.083
  S197                       6.33       0.00       0.00       3.48       2.82       0.00       2.82        0.05     0.01   0.445
  S198                       6.33       0.00       0.00       5.38       0.76       0.00       0.76        0.01     0.00   0.120
  S199                       6.33       0.00       0.00       5.38       0.76       0.00       0.76        0.01     0.00   0.121
  S200                       6.33       0.00       0.00       5.70       0.52       0.00       0.52        0.01     0.00   0.082
  S201                       6.33       0.00       0.00       6.01       0.27       0.00       0.27        0.01     0.00   0.042
  S202                       6.33       0.00       0.00       4.91       1.36       0.00       1.36        0.02     0.01   0.215
  S203                       6.33       0.00       0.00       4.43       1.84       0.00       1.84        0.02     0.00   0.290
  S204                       6.33       0.00       0.00       2.22       4.05       0.00       4.05        0.04     0.01   0.639
  S205                       6.33       0.00       0.00       5.38       0.77       0.00       0.77        0.01     0.00   0.121
  S206                       6.33       0.00       0.00       6.01       0.27       0.00       0.27        0.00     0.00   0.043
  S207                       6.33       0.00       0.00       6.01       0.27       0.00       0.27        0.00     0.00   0.042
  S208                       6.33       0.00       0.00       6.01       0.27       0.00       0.27        0.00     0.00   0.042
  S209                       6.33       0.00       0.00       1.06       5.21       0.00       5.21        0.02     0.01   0.823
  S210                       6.33       0.00       0.00       6.01       0.27       0.00       0.27        0.00     0.00   0.043
  S211                       6.33       0.00       0.00       1.06       5.13       0.00       5.13        0.07     0.01   0.811
  S212                       6.33       0.00       0.00       5.38       0.77       0.00       0.77        0.00     0.00   0.122
  S213                       6.33       0.00       0.00       5.70       0.52       0.00       0.52        0.00     0.00   0.083
  S214                       6.33       0.00       0.00       5.38       0.77       0.00       0.77        0.00     0.00   0.122
  S215                       6.33       0.00       0.00       2.22       4.07       0.00       4.07        0.03     0.01   0.643
  S216                       6.33       0.00       0.00       2.22       4.03       0.00       4.03        0.05     0.01   0.637
  S217                       6.33       0.00       0.00       5.70       0.52       0.00       0.52        0.00     0.00   0.082
  S218                       6.33       0.00       0.00       4.91       1.39       0.00       1.39        0.00     0.00   0.219
  S219                       6.33       0.00       0.00       5.70       0.52       0.00       0.52        0.00     0.00   0.082
  S220                       6.33       0.00       0.00       4.43       1.84       0.00       1.84        0.02     0.00   0.291
  S221                       6.33       0.00       0.00       3.48       2.85       0.00       2.85        0.01     0.00   0.450
  S222                       6.33       0.00       0.00       4.43       1.87       0.00       1.87        0.02     0.00   0.296
  S223                       6.33       0.00       0.00       6.01       0.27       0.00       0.27        0.00     0.00   0.042
  S224                       6.33       0.00       0.00       3.48       2.81       0.00       2.81        0.05     0.01   0.444
  S225                       6.33       0.00       0.00       5.70       0.52       0.00       0.52        0.01     0.00   0.082
  S226                       6.33       0.00       0.00       5.38       0.76       0.00       0.76        0.01     0.00   0.121
  S227                       6.33       0.00       0.00       6.19       0.12       0.00       0.12        0.00     0.00   0.019
  S228                       6.33       0.00       0.00       4.91       1.40       0.00       1.40        0.00     0.00   0.222
  S229                       6.33       0.00       0.00       4.91       1.37       0.00       1.37        0.03     0.01   0.216
  S230                       6.33       0.00       0.00       5.38       0.77       0.00       0.77        0.01     0.00   0.121
  S231                       6.33       0.00       0.00       4.91       1.41       0.00       1.41        0.00     0.00   0.222
  S232                       6.33       0.00       0.00       4.43       1.85       0.00       1.85        0.01     0.00   0.292
  S233                       6.33       0.00       0.00       6.01       0.27       0.00       0.27        0.00     0.00   0.043
  S234                       6.33       0.00       0.00       5.70       0.52       0.00       0.52        0.00     0.00   0.082
  S235                       6.33       0.00       0.00       4.43       1.86       0.00       1.86        0.02     0.01   0.293
  S236                       6.33       0.00       0.00       4.91       1.45       0.00       1.45        0.00     0.00   0.229
  S237                       6.33       0.00       0.00       3.48       2.89       0.00       2.89        0.01     0.00   0.456
  S238                       6.33       0.00       0.00       5.70       0.52       0.00       0.52        0.00     0.00   0.083
  S239                       6.33       0.00       0.00       4.91       1.39       0.00       1.39        0.01     0.00   0.219
  S240                       6.33       0.00       0.00       2.22       4.05       0.00       4.05        0.04     0.01   0.639
  S241                       6.33       0.00       0.00       3.48       2.84       0.00       2.84        0.02     0.00   0.448
  S242                       6.33       0.00       0.00       5.70       0.52       0.00       0.52        0.00     0.00   0.082
  S243                       6.33       0.00       0.00       5.70       0.52       0.00       0.52        0.00     0.00   0.082
  S244                       6.33       0.00       0.00       6.01       0.27       0.00       0.27        0.00     0.00   0.042
  S245                       6.33       0.00       0.00       6.01       0.27       0.00       0.27        0.00     0.00   0.042
  S246                       6.33       0.00       0.00       1.06       5.12       0.00       5.12        0.10     0.02   0.809
  S247                       6.33       0.00       0.00       4.43       1.85       0.00       1.85        0.03     0.01   0.293
  S248                       6.33       0.00       0.00       5.38       0.77       0.00       0.77        0.01     0.00   0.121
  S249                       6.33       0.00       0.00       5.70       0.52       0.00       0.52        0.01     0.00   0.083
  S250                       6.33       0.00       0.00       5.70       0.52       0.00       0.52        0.01     0.00   0.082
  S251                       6.33       0.00       0.00       5.38       0.77       0.00       0.77        0.00     0.00   0.121
  S252                       6.33       0.00       0.00       6.01       0.27       0.00       0.27        0.00     0.00   0.042
  S253                       6.33       0.00       0.00       4.43       1.84       0.00       1.84        0.03     0.00   0.290
  S254                       6.33       0.00       0.00       6.01       0.28       0.00       0.28        0.00     0.00   0.044
  S255                       6.33       0.00       0.00       3.48       2.85       0.00       2.85        0.01     0.00   0.450
  S256                       6.33       0.00       0.00       6.01       0.27       0.00       0.27        0.00     0.00   0.043
  S257                       6.33       0.00       0.00       5.38       0.76       0.00       0.76        0.01     0.00   0.120
  S258                       6.33       0.00       0.00       6.01       0.27       0.00       0.27        0.00     0.00   0.043
  S259                       6.33       0.00       0.00       4.43       1.90       0.00       1.90        0.00     0.00   0.301
  S260                       6.33       0.00       0.00       5.38       0.77       0.00       0.77        0.00     0.00   0.122
  S261                       6.33       0.00       0.00       3.48       2.81       0.00       2.81        0.04     0.01   0.443
  S262                       6.33       0.00       0.00       4.43       1.85       0.00       1.85        0.01     0.00   0.292
  S263                       6.33       0.00       0.00       6.01       0.29       0.00       0.29        0.00     0.00   0.046
  S264                       6.33       0.00       0.00       1.06       5.12       0.00       5.12        0.10     0.02   0.809
  S265                       6.33       0.00       0.00       5.70       0.52       0.00       0.52        0.00     0.00   0.083
  S266                       6.33       0.00       0.00       4.43       1.87       0.00       1.87        0.01     0.00   0.295
  S267                       6.33       0.00       0.00       5.70       0.52       0.00       0.52        0.00     0.00   0.082
  S268                       6.33       0.00       0.00       5.70       0.52       0.00       0.52        0.00     0.00   0.082
  S269                       6.33       0.00       0.00       6.01       0.29       0.00       0.29        0.00     0.00   0.045
  S270                       6.33       0.00       0.00       5.70       0.52       0.00       0.52        0.01     0.00   0.082
  S271                       6.33       0.00       0.00       3.48       2.80       0.00       2.80        0.05     0.01   0.443
  S272                       6.33       0.00       0.00       5.38       0.76       0.00       0.76        0.01     0.00   0.120
  S273                       6.33       0.00       0.00       5.70       0.52       0.00       0.52        0.01     0.00   0.082
  S274                       6.33       0.00       0.00       5.38       0.76       0.00       0.76        0.01     0.00   0.120
  S275                       6.33       0.00       0.00       4.91       1.44       0.00       1.44        0.00     0.00   0.227
  S276                       6.33       0.00       0.00       3.48       2.82       0.00       2.82        0.04     0.01   0.446
  S277                       6.33       0.00       0.00       5.38       0.76       0.00       0.76        0.02     0.00   0.121
  S278                       6.33       0.00       0.00       5.38       0.77       0.00       0.77        0.01     0.00   0.121
  S279                       6.33       0.00       0.00       5.70       0.53       0.00       0.53        0.00     0.00   0.083
  S280                       6.33       0.00       0.00       6.01       0.27       0.00       0.27        0.00     0.00   0.042
  S281                       6.33       0.00       0.00       2.22       4.15       0.00       4.15        0.01     0.00   0.655
  S282                       6.33       0.00       0.00       5.70       0.52       0.00       0.52        0.00     0.00   0.082
  S283                       6.33       0.00       0.00       1.06       5.12       0.00       5.12        0.10     0.02   0.809
  S284                       6.33       0.00       0.00       5.70       0.52       0.00       0.52        0.01     0.00   0.082
  S285                       6.33       0.00       0.00       5.70       0.52       0.00       0.52        0.00     0.00   0.083
  S286                       6.33       0.00       0.00       4.43       1.84       0.00       1.84        0.03     0.01   0.291
  S287                       6.33       0.00       0.00       5.38       0.76       0.00       0.76        0.01     0.00   0.120
  S288                       6.33       0.00       0.00       4.43       1.91       0.00       1.91        0.00     0.00   0.301
  S289                       6.33       0.00       0.00       5.70       0.52       0.00       0.52        0.00     0.00   0.082
  S290                       6.33       0.00       0.00       6.01       0.27       0.00       0.27        0.00     0.00   0.043
  S291                       6.33       0.00       0.00       6.01       0.27       0.00       0.27        0.00     0.00   0.043
  S292                       6.33       0.00       0.00       4.43       1.86       0.00       1.86        0.03     0.01   0.294
  S293                       6.33       0.00       0.00       5.38       0.76       0.00       0.76        0.01     0.00   0.121
  S294                       6.33       0.00       0.00       4.91       1.38       0.00       1.38        0.02     0.01   0.217
  S295                       6.33       0.00       0.00       1.06       5.13       0.00       5.13        0.08     0.02   0.810
  S296                       6.33       0.00       0.00       5.38       0.77       0.00       0.77        0.01     0.00   0.121
  S297                       6.33       0.00       0.00       5.38       0.77       0.00       0.77        0.01     0.00   0.121
  S298                       6.33       0.00       0.00       6.01       0.28       0.00       0.28        0.00     0.00   0.043
  S299                       6.33       0.00       0.00       4.91       1.36       0.00       1.36        0.01     0.00   0.214
  S300                       6.33       0.00       0.00       4.43       1.84       0.00       1.84        0.03     0.00   0.290
  S301                       6.33       0.00       0.00       4.43       1.94       0.00       1.94        0.00     0.00   0.306
  S302                       6.33       0.00       0.00       5.70       0.52       0.00       0.52        0.00     0.00   0.082
  S303                       6.33       0.00       0.00       6.01       0.27       0.00       0.27        0.01     0.00   0.042
  S304                       6.33       0.00       0.00       5.70       0.52       0.00       0.52        0.00     0.00   0.082
  S305                       6.33       0.00       0.00       5.70       0.52       0.00       0.52        0.00     0.00   0.083
  S306                       6.33       0.00       0.00       5.70       0.52       0.00       0.52        0.01     0.00   0.082
  S307                       6.33       0.00       0.00       5.70       0.52       0.00       0.52        0.00     0.00   0.082
  S308                       6.33       0.00       0.00       4.43       1.85       0.00       1.85        0.03     0.01   0.291
  S309                       6.33       0.00       0.00       3.48       2.87       0.00       2.87        0.01     0.00   0.453
  S310                       6.33       0.00       0.00       4.43       1.86       0.00       1.86        0.01     0.00   0.293
  S311                       6.33       0.00       0.00       5.70       0.52       0.00       0.52        0.01     0.00   0.082
  S312                       6.33       0.00       0.00       5.70       0.52       0.00       0.52        0.01     0.00   0.082
  S313                       6.33       0.00       0.00       4.43       1.85       0.00       1.85        0.03     0.01   0.293
  S314                       6.33       0.00       0.00       3.48       2.83       0.00       2.83        0.05     0.01   0.446
  S315                       6.33       0.00       0.00       5.38       0.77       0.00       0.77        0.01     0.00   0.121
  S316                       6.33       0.00       0.00       6.01       0.27       0.00       0.27        0.00     0.00   0.042
  S317                       6.33       0.00       0.00       6.01       0.27       0.00       0.27        0.00     0.00   0.042
  S318                       6.33       0.00       0.00       6.01       0.27       0.00       0.27        0.00     0.00   0.042
  S319                       6.33       0.00       0.00       3.48       2.81       0.00       2.81        0.04     0.01   0.444
  S320                       6.33       0.00       0.00       4.91       1.39       0.00       1.39        0.01     0.00   0.219
  S321                       6.33       0.00       0.00       5.38       0.77       0.00       0.77        0.00     0.00   0.121
  S322                       6.33       0.00       0.00       6.01       0.27       0.00       0.27        0.00     0.00   0.043
  S323                       6.33       0.00       0.00       5.38       0.77       0.00       0.77        0.01     0.00   0.121
  S324                       6.33       0.00       0.00       4.43       1.84       0.00       1.84        0.03     0.01   0.291
  S325                       6.33       0.00       0.00       5.70       0.52       0.00       0.52        0.01     0.00   0.082
  S326                       6.33       0.00       0.00       4.91       1.38       0.00       1.38        0.01     0.00   0.218
  S327                       6.33       0.00       0.00       4.43       1.87       0.00       1.87        0.02     0.01   0.295
  S328                       6.33       0.00       0.00       4.91       1.36       0.00       1.36        0.02     0.00   0.215
  S329                       6.33       0.00       0.00       4.43       1.86       0.00       1.86        0.03     0.01   0.294
  S330                       6.33       0.00       0.00       5.70       0.52       0.00       0.52        0.01     0.00   0.082
  S331                       6.33       0.00       0.00       5.70       0.52       0.00       0.52        0.00     0.00   0.083
  S332                       6.33       0.00       0.00       4.91       1.35       0.00       1.35        0.03     0.01   0.213
  S333                       6.33       0.00       0.00       4.43       1.84       0.00       1.84        0.02     0.00   0.290
  S334                       6.33       0.00       0.00       4.43       1.87       0.00       1.87        0.01     0.00   0.295
  S335                       6.33       0.00       0.00       6.01       0.27       0.00       0.27        0.00     0.00   0.043
  S336                       6.33       0.00       0.00       4.43       1.86       0.00       1.86        0.02     0.01   0.294
  S337                       6.33       0.00       0.00       5.70       0.52       0.00       0.52        0.00     0.00   0.082
  S338                       6.33       0.00       0.00       1.06       5.12       0.00       5.12        0.09     0.02   0.809
  S339                       6.33       0.00       0.00       5.70       0.55       0.00       0.55        0.00     0.00   0.086
  S340                       6.33       0.00       0.00       5.70       0.52       0.00       0.52        0.01     0.00   0.082
  S341                       6.33       0.00       0.00       6.01       0.28       0.00       0.28        0.00     0.00   0.044
  S342                       6.33       0.00       0.00       1.06       5.14       0.00       5.14        0.07     0.01   0.811
  S343                       6.33       0.00       0.00       4.43       1.86       0.00       1.86        0.03     0.01   0.293
  S344                       6.33       0.00       0.00       4.91       1.40       0.00       1.40        0.01     0.00   0.222
  S345                       6.33       0.00       0.00       5.70       0.52       0.00       0.52        0.00     0.00   0.082
  S346                       6.33       0.00       0.00       5.70       0.52       0.00       0.52        0.01     0.00   0.082
  S347                       6.33       0.00       0.00       5.70       0.52       0.00       0.52        0.01     0.00   0.082
  S348                       6.33       0.00       0.00       6.01       0.27       0.00       0.27        0.00     0.00   0.042
  S349                       6.33       0.00       0.00       6.19       0.12       0.00       0.12        0.00     0.00   0.019
  S350                       6.33       0.00       0.00       5.70       0.52       0.00       0.52        0.00     0.00   0.082
  S351                       6.33       0.00       0.00       4.43       1.84       0.00       1.84        0.03     0.01   0.290
  S352                       6.33       0.00       0.00       6.01       0.27       0.00       0.27        0.00     0.00   0.042
  S353                       6.33       0.00       0.00       5.38       0.76       0.00       0.76        0.01     0.00   0.121
  S354                       6.33       0.00       0.00       5.70       0.52       0.00       0.52        0.00     0.00   0.083
  S355                       6.33       0.00       0.00       4.43       1.84       0.00       1.84        0.03     0.01   0.291
  S356                       6.33       0.00       0.00       5.70       0.52       0.00       0.52        0.01     0.00   0.082
  S357                       6.33       0.00       0.00       5.70       0.52       0.00       0.52        0.00     0.00   0.082
  S358                       6.33       0.00       0.00       6.01       0.27       0.00       0.27        0.00     0.00   0.042
  S359                       6.33       0.00       0.00       5.70       0.53       0.00       0.53        0.00     0.00   0.084
  S360                       6.33       0.00       0.00       5.70       0.52       0.00       0.52        0.01     0.00   0.082
  S361                       6.33       0.00       0.00       5.70       0.52       0.00       0.52        0.01     0.00   0.082
  S362                       6.33       0.00       0.00       5.70       0.52       0.00       0.52        0.01     0.00   0.082
  S363                       6.33       0.00       0.00       5.70       0.52       0.00       0.52        0.01     0.00   0.082
  S364                       6.33       0.00       0.00       6.19       0.12       0.00       0.12        0.00     0.00   0.019
  S365                       6.33       0.00       0.00       5.70       0.52       0.00       0.52        0.01     0.00   0.082
  S366                       6.33       0.00       0.00       6.19       0.12       0.00       0.12        0.00     0.00   0.019
  S367                       6.33       0.00       0.00       5.70       0.52       0.00       0.52        0.00     0.00   0.082
  S368                       6.33       0.00       0.00       6.19       0.12       0.00       0.12        0.00     0.00   0.019
  S369                       6.33       0.00       0.00       2.22       4.03       0.00       4.03        0.06     0.02   0.636
  S370                       6.33       0.00       0.00       3.48       2.82       0.00       2.82        0.05     0.01   0.445
  S371                       6.33       0.00       0.00       4.43       1.91       0.00       1.91        0.01     0.00   0.302
  S372                       6.33       0.00       0.00       5.70       0.52       0.00       0.52        0.01     0.00   0.082
  S373                       6.33       0.00       0.00       1.06       5.12       0.00       5.12        0.09     0.02   0.809
  S374                       6.33       0.00       0.00       3.48       2.91       0.00       2.91        0.01     0.00   0.459
  S375                       6.33       0.00       0.00       4.43       1.89       0.00       1.89        0.01     0.00   0.298
  S376                       6.33       0.00       0.00       2.22       4.02       0.00       4.02        0.08     0.02   0.634
  S377                       6.33       0.00       0.00       5.70       0.52       0.00       0.52        0.00     0.00   0.082
  S378                       6.33       0.00       0.00       5.70       0.52       0.00       0.52        0.01     0.00   0.082
  S379                       6.33       0.00       0.00       5.38       0.77       0.00       0.77        0.01     0.00   0.121
  S380                       6.33       0.00       0.00       4.91       1.40       0.00       1.40        0.01     0.00   0.221
  S381                       6.33       0.00       0.00       5.70       0.52       0.00       0.52        0.01     0.00   0.082
  S382                       6.33       0.00       0.00       4.91       1.36       0.00       1.36        0.03     0.01   0.214
  S383                       6.33       0.00       0.00       5.38       0.78       0.00       0.78        0.00     0.00   0.123
  S384                       6.33       0.00       0.00       4.43       1.85       0.00       1.85        0.02     0.00   0.292
  S385                       6.33       0.00       0.00       6.01       0.29       0.00       0.29        0.00     0.00   0.045
  S386                       6.33       0.00       0.00       3.48       2.81       0.00       2.81        0.03     0.00   0.444
  S387                       6.33       0.00       0.00       5.70       0.53       0.00       0.53        0.00     0.00   0.083
  S388                       6.33       0.00       0.00       5.70       0.53       0.00       0.53        0.00     0.00   0.083
  S389                       6.33       0.00       0.00       6.01       0.27       0.00       0.27        0.00     0.00   0.042
  S390                       6.33       0.00       0.00       3.48       2.82       0.00       2.82        0.01     0.00   0.445
  S391                       6.33       0.00       0.00       6.19       0.12       0.00       0.12        0.00     0.00   0.019
  S392                       6.33       0.00       0.00       5.38       0.77       0.00       0.77        0.00     0.00   0.121
  S393                       6.33       0.00       0.00       5.70       0.52       0.00       0.52        0.01     0.00   0.082
  S394                       6.33       0.00       0.00       3.48       2.80       0.00       2.80        0.04     0.01   0.443
  S395                       6.33       0.00       0.00       1.06       5.21       0.00       5.21        0.02     0.01   0.823
  S396                       6.33       0.00       0.00       4.91       1.42       0.00       1.42        0.00     0.00   0.224
  S397                       6.33       0.00       0.00       5.38       0.76       0.00       0.76        0.01     0.00   0.120
  S398                       6.33       0.00       0.00       4.43       1.88       0.00       1.88        0.01     0.00   0.297
  S399                       6.33       0.00       0.00       5.38       0.77       0.00       0.77        0.00     0.00   0.121
  S400                       6.33       0.00       0.00       5.70       0.52       0.00       0.52        0.00     0.00   0.082
  S401                       6.33       0.00       0.00       4.43       1.84       0.00       1.84        0.02     0.00   0.290
  S402                       6.33       0.00       0.00       6.01       0.27       0.00       0.27        0.00     0.00   0.042
  S403                       6.33       0.00       0.00       3.48       2.82       0.00       2.82        0.03     0.01   0.445
  S404                       6.33       0.00       0.00       4.91       1.37       0.00       1.37        0.02     0.01   0.217
  S405                       6.33       0.00       0.00       3.48       2.83       0.00       2.83        0.02     0.01   0.447
  S406                       6.33       0.00       0.00       5.70       0.52       0.00       0.52        0.01     0.00   0.082
  S407                       6.33       0.00       0.00       5.38       0.76       0.00       0.76        0.01     0.00   0.120
  S408                       6.33       0.00       0.00       5.38       0.77       0.00       0.77        0.00     0.00   0.121
  S409                       6.33       0.00       0.00       5.70       0.52       0.00       0.52        0.01     0.00   0.082
  S410                       6.33       0.00       0.00       5.38       0.77       0.00       0.77        0.01     0.00   0.121
  S411                       6.33       0.00       0.00       5.70       0.52       0.00       0.52        0.00     0.00   0.082
  S412                       6.33       0.00       0.00       5.70       0.52       0.00       0.52        0.01     0.00   0.082
  S413                       6.33       0.00       0.00       5.70       0.53       0.00       0.53        0.00     0.00   0.083
  S414                       6.33       0.00       0.00       5.70       0.52       0.00       0.52        0.00     0.00   0.082
  S415                       6.33       0.00       0.00       4.91       1.37       0.00       1.37        0.02     0.00   0.217
  S416                       6.33       0.00       0.00       3.48       2.85       0.00       2.85        0.01     0.00   0.450
  S417                       6.33       0.00       0.00       4.43       1.84       0.00       1.84        0.02     0.00   0.291
  S418                       6.33       0.00       0.00       5.70       0.52       0.00       0.52        0.00     0.00   0.082
  S419                       6.33       0.00       0.00       4.91       1.40       0.00       1.40        0.01     0.00   0.222
  S420                       6.33       0.00       0.00       2.22       4.03       0.00       4.03        0.06     0.01   0.636
  S421                       6.33       0.00       0.00       4.91       1.36       0.00       1.36        0.01     0.00   0.215
  S422                       6.33       0.00       0.00       4.43       1.87       0.00       1.87        0.02     0.01   0.295
  S423                       6.33       0.00       0.00       4.91       1.36       0.00       1.36        0.02     0.01   0.215
  S424                       6.33       0.00       0.00       5.70       0.52       0.00       0.52        0.01     0.00   0.082
  S425                       6.33       0.00       0.00       5.70       0.53       0.00       0.53        0.00     0.00   0.083
  S426                       6.33       0.00       0.00       3.48       2.80       0.00       2.80        0.05     0.01   0.443
  S427                       6.33       0.00       0.00       5.38       0.77       0.00       0.77        0.01     0.00   0.121
  S428                       6.33       0.00       0.00       5.38       0.77       0.00       0.77        0.01     0.00   0.121
  S429                       6.33       0.00       0.00       5.38       0.77       0.00       0.77        0.00     0.00   0.121
  S430                       6.33       0.00       0.00       4.43       1.85       0.00       1.85        0.01     0.00   0.292
  S431                       6.33       0.00       0.00       5.38       0.77       0.00       0.77        0.00     0.00   0.121
  S432                       6.33       0.00       0.00       4.43       1.84       0.00       1.84        0.02     0.00   0.290
  S433                       6.33       0.00       0.00       5.38       0.77       0.00       0.77        0.00     0.00   0.121
  S434                       6.33       0.00       0.00       5.70       0.53       0.00       0.53        0.00     0.00   0.084
  S435                       6.33       0.00       0.00       2.22       4.02       0.00       4.02        0.07     0.02   0.635
  S436                       6.33       0.00       0.00       5.70       0.52       0.00       0.52        0.01     0.00   0.082
  S437                       6.33       0.00       0.00       5.70       0.52       0.00       0.52        0.01     0.00   0.082
  S438                       6.33       0.00       0.00       4.43       1.94       0.00       1.94        0.00     0.00   0.307
  S439                       6.33       0.00       0.00       3.48       2.84       0.00       2.84        0.02     0.00   0.448
  S440                       6.33       0.00       0.00       6.01       0.27       0.00       0.27        0.00     0.00   0.043
  S441                       6.33       0.00       0.00       4.43       1.85       0.00       1.85        0.02     0.00   0.293
  S442                       6.33       0.00       0.00       5.38       0.77       0.00       0.77        0.01     0.00   0.121
  S443                       6.33       0.00       0.00       5.70       0.52       0.00       0.52        0.01     0.00   0.082
  S444                       6.33       0.00       0.00       5.70       0.52       0.00       0.52        0.00     0.00   0.083
  S445                       6.33       0.00       0.00       6.01       0.27       0.00       0.27        0.00     0.00   0.043
  S446                       6.33       0.00       0.00       6.01       0.27       0.00       0.27        0.00     0.00   0.043
  S447                       6.33       0.00       0.00       6.01       0.27       0.00       0.27        0.00     0.00   0.042
  S448                       6.33       0.00       0.00       5.70       0.52       0.00       0.52        0.01     0.00   0.082
  S449                       6.33       0.00       0.00       5.70       0.52       0.00       0.52        0.01     0.00   0.082
  S450                       6.33       0.00       0.00       3.48       2.81       0.00       2.81        0.03     0.00   0.443
  S451                       6.33       0.00       0.00       6.19       0.12       0.00       0.12        0.00     0.00   0.020
  S452                       6.33       0.00       0.00       6.19       0.12       0.00       0.12        0.00     0.00   0.019
  S453                       6.33       0.00       0.00       6.01       0.27       0.00       0.27        0.00     0.00   0.043
  S454                       6.33       0.00       0.00       3.48       2.83       0.00       2.83        0.04     0.01   0.446
  S455                       6.33       0.00       0.00       3.48       2.86       0.00       2.86        0.01     0.00   0.452
  S456                       6.33       0.00       0.00       5.70       0.53       0.00       0.53        0.00     0.00   0.083
  S457                       6.33       0.00       0.00       5.70       0.52       0.00       0.52        0.01     0.00   0.082
  S458                       6.33       0.00       0.00       5.38       0.77       0.00       0.77        0.01     0.00   0.121
  S459                       6.33       0.00       0.00       6.19       0.12       0.00       0.12        0.00     0.00   0.019
  S460                       6.33       0.00       0.00       4.91       1.37       0.00       1.37        0.02     0.01   0.217
  S461                       6.33       0.00       0.00       5.70       0.52       0.00       0.52        0.01     0.00   0.082
  S462                       6.33       0.00       0.00       5.70       0.53       0.00       0.53        0.00     0.00   0.083
  S463                       6.33       0.00       0.00       5.70       0.52       0.00       0.52        0.01     0.00   0.082
  S464                       6.33       0.00       0.00       2.22       4.07       0.00       4.07        0.03     0.01   0.642
  S465                       6.33       0.00       0.00       3.48       2.89       0.00       2.89        0.00     0.00   0.457
  S466                       6.33       0.00       0.00       5.70       0.52       0.00       0.52        0.01     0.00   0.082
  S467                       6.33       0.00       0.00       6.01       0.28       0.00       0.28        0.00     0.00   0.045
  S468                       6.33       0.00       0.00       5.70       0.52       0.00       0.52        0.00     0.00   0.082
  S469                       6.33       0.00       0.00       5.70       0.52       0.00       0.52        0.01     0.00   0.082
  S470                       6.33       0.00       0.00       1.06       5.13       0.00       5.13        0.07     0.01   0.811
  S471                       6.33       0.00       0.00       6.19       0.12       0.00       0.12        0.00     0.00   0.019
  S472                       6.33       0.00       0.00       6.01       0.27       0.00       0.27        0.00     0.00   0.043
  S473                       6.33       0.00       0.00       6.19       0.12       0.00       0.12        0.00     0.00   0.019
  S474                       6.33       0.00       0.00       6.01       0.27       0.00       0.27        0.00     0.00   0.042
  S475                       6.33       0.00       0.00       3.48       2.90       0.00       2.90        0.01     0.00   0.458
  S476                       6.33       0.00       0.00       5.70       0.52       0.00       0.52        0.01     0.00   0.082
  S477                       6.33       0.00       0.00       4.91       1.35       0.00       1.35        0.02     0.00   0.214
  S478                       6.33       0.00       0.00       5.70       0.52       0.00       0.52        0.01     0.00   0.082
  S479                       6.33       0.00       0.00       5.38       0.77       0.00       0.77        0.01     0.00   0.121
  S480                       6.33       0.00       0.00       5.38       0.77       0.00       0.77        0.00     0.00   0.122
  S481                       6.33       0.00       0.00       6.01       0.27       0.00       0.27        0.00     0.00   0.042
  S482                       6.33       0.00       0.00       4.91       1.39       0.00       1.39        0.01     0.00   0.219
  S483                       6.33       0.00       0.00       3.48       2.81       0.00       2.81        0.04     0.01   0.444
  S484                       6.33       0.00       0.00       4.43       1.86       0.00       1.86        0.03     0.01   0.294
  S485                       6.33       0.00       0.00       1.06       5.22       0.00       5.22        0.02     0.00   0.824
  S486                       6.33       0.00       0.00       6.01       0.27       0.00       0.27        0.00     0.00   0.042
  S487                       6.33       0.00       0.00       5.38       0.77       0.00       0.77        0.00     0.00   0.121
  S488                       6.33       0.00       0.00       6.01       0.27       0.00       0.27        0.00     0.00   0.043
  S489                       6.33       0.00       0.00       4.91       1.36       0.00       1.36        0.03     0.01   0.214
  S490                       6.33       0.00       0.00       5.70       0.52       0.00       0.52        0.01     0.00   0.082
  S491                       6.33       0.00       0.00       6.01       0.27       0.00       0.27        0.00     0.00   0.042
  S492                       6.33       0.00       0.00       5.70       0.52       0.00       0.52        0.00     0.00   0.082
  S493                       6.33       0.00       0.00       6.01       0.27       0.00       0.27        0.00     0.00   0.043
  S494                       6.33       0.00       0.00       4.91       1.37       0.00       1.37        0.02     0.01   0.217
  S495                       6.33       0.00       0.00       6.19       0.12       0.00       0.12        0.00     0.00   0.019
  S496                       6.33       0.00       0.00       2.22       4.02       0.00       4.02        0.07     0.02   0.635
  S497                       6.33       0.00       0.00       4.91       1.37       0.00       1.37        0.01     0.00   0.216
  S498                       6.33       0.00       0.00       5.70       0.52       0.00       0.52        0.00     0.00   0.083
  S499                       6.33       0.00       0.00       6.19       0.12       0.00       0.12        0.00     0.00   0.019
  S500                       6.33       0.00       0.00       5.38       0.77       0.00       0.77        0.01     0.00   0.121
  S501                       6.33       0.00       0.00       5.70       0.52       0.00       0.52        0.00     0.00   0.083
  S502                       6.33       0.00       0.00       3.48       2.86       0.00       2.86        0.01     0.00   0.452
  S503                       6.33       0.00       0.00       5.70       0.52       0.00       0.52        0.01     0.00   0.082
  S504                       6.33       0.00       0.00       2.22       4.03       0.00       4.03        0.07     0.02   0.636
  S505                       6.33       0.00       0.00       6.19       0.12       0.00       0.12        0.00     0.00   0.019
  S506                       6.33       0.00       0.00       2.22       4.27       0.00       4.27        0.00     0.00   0.674
  S507                       6.33       0.00       0.00       5.70       0.52       0.00       0.52        0.01     0.00   0.082
  S508                       6.33       0.00       0.00       5.70       0.52       0.00       0.52        0.01     0.00   0.083
  S509                       6.33       0.00       0.00       6.01       0.27       0.00       0.27        0.00     0.00   0.043
  S510                       6.33       0.00       0.00       2.22       4.03       0.00       4.03        0.06     0.02   0.636
  S511                       6.33       0.00       0.00       4.43       1.84       0.00       1.84        0.03     0.00   0.290
  S512                       6.33       0.00       0.00       3.48       2.82       0.00       2.82        0.02     0.00   0.446
  S513                       6.33       0.00       0.00       6.01       0.27       0.00       0.27        0.00     0.00   0.042
  S514                       6.33       0.00       0.00       5.70       0.52       0.00       0.52        0.01     0.00   0.082
  S515                       6.33       0.00       0.00       4.43       1.86       0.00       1.86        0.03     0.01   0.294
  S516                       6.33       0.00       0.00       5.38       0.77       0.00       0.77        0.01     0.00   0.121
  S517                       6.33       0.00       0.00       6.01       0.28       0.00       0.28        0.00     0.00   0.044
  S518                       6.33       0.00       0.00       5.70       0.52       0.00       0.52        0.01     0.00   0.082
  S519                       6.33       0.00       0.00       2.22       4.06       0.00       4.06        0.03     0.01   0.641
  S520                       6.33       0.00       0.00       6.01       0.28       0.00       0.28        0.00     0.00   0.044
  S521                       6.33       0.00       0.00       5.38       0.77       0.00       0.77        0.01     0.00   0.121
  S522                       6.33       0.00       0.00       5.70       0.52       0.00       0.52        0.01     0.00   0.082
  S523                       6.33       0.00       0.00       6.01       0.27       0.00       0.27        0.01     0.00   0.043
  S524                       6.33       0.00       0.00       3.48       2.84       0.00       2.84        0.03     0.01   0.449
  S525                       6.33       0.00       0.00       5.70       0.52       0.00       0.52        0.01     0.00   0.082
  S526                       6.33       0.00       0.00       5.38       0.77       0.00       0.77        0.00     0.00   0.121
  S527                       6.33       0.00       0.00       5.70       0.53       0.00       0.53        0.00     0.00   0.084
  S528                       6.33       0.00       0.00       5.38       0.77       0.00       0.77        0.01     0.00   0.121
  S529                       6.33       0.00       0.00       5.70       0.52       0.00       0.52        0.00     0.00   0.083
  S530                       6.33       0.00       0.00       5.70       0.52       0.00       0.52        0.00     0.00   0.082
  S531                       6.33       0.00       0.00       5.70       0.52       0.00       0.52        0.00     0.00   0.083
  S532                       6.33       0.00       0.00       6.01       0.27       0.00       0.27        0.00     0.00   0.042
  S533                       6.33       0.00       0.00       5.70       0.52       0.00       0.52        0.00     0.00   0.082
  S534                       6.33       0.00       0.00       5.38       0.77       0.00       0.77        0.01     0.00   0.121
  S535                       6.33       0.00       0.00       3.48       2.83       0.00       2.83        0.02     0.00   0.447
  S536                       6.33       0.00       0.00       5.38       0.77       0.00       0.77        0.01     0.00   0.121
  S537                       6.33       0.00       0.00       1.06       5.13       0.00       5.13        0.08     0.02   0.810
  S538                       6.33       0.00       0.00       4.91       1.37       0.00       1.37        0.01     0.00   0.216
  S539                       6.33       0.00       0.00       4.91       1.42       0.00       1.42        0.00     0.00   0.224
  S540                       6.33       0.00       0.00       4.91       1.38       0.00       1.38        0.02     0.01   0.217
  S541                       6.33       0.00       0.00       5.70       0.52       0.00       0.52        0.01     0.00   0.082
  S542                       6.33       0.00       0.00       5.38       0.77       0.00       0.77        0.00     0.00   0.121
  S543                       6.33       0.00       0.00       5.38       0.77       0.00       0.77        0.00     0.00   0.121
  S544                       6.33       0.00       0.00       5.38       0.77       0.00       0.77        0.01     0.00   0.121
  S545                       6.33       0.00       0.00       5.70       0.52       0.00       0.52        0.00     0.00   0.083
  S546                       6.33       0.00       0.00       5.70       0.52       0.00       0.52        0.01     0.00   0.082
  S547                       6.33       0.00       0.00       4.91       1.49       0.00       1.49        0.00     0.00   0.235
  S548                       6.33       0.00       0.00       3.48       2.85       0.00       2.85        0.02     0.00   0.450
  S549                       6.33       0.00       0.00       3.48       2.81       0.00       2.81        0.03     0.00   0.443
  S550                       6.33       0.00       0.00       2.22       4.04       0.00       4.04        0.04     0.01   0.639
  S551                       6.33       0.00       0.00       5.70       0.53       0.00       0.53        0.00     0.00   0.083
  S552                       6.33       0.00       0.00       2.22       4.27       0.00       4.27        0.00     0.00   0.674
  S553                       6.33       0.00       0.00       5.38       0.77       0.00       0.77        0.00     0.00   0.121
  S554                       6.33       0.00       0.00       2.22       4.03       0.00       4.03        0.05     0.01   0.637
  S555                       6.33       0.00       0.00       5.70       0.52       0.00       0.52        0.00     0.00   0.083
  S556                       6.33       0.00       0.00       2.22       4.10       0.00       4.10        0.02     0.01   0.648
  S557                       6.33       0.00       0.00       5.38       0.76       0.00       0.76        0.01     0.00   0.120
  S558                       6.33       0.00       0.00       5.70       0.52       0.00       0.52        0.00     0.00   0.082
  S559                       6.33       0.00       0.00       4.91       1.47       0.00       1.47        0.00     0.00   0.233
  S560                       6.33       0.00       0.00       5.38       0.76       0.00       0.76        0.01     0.00   0.121
  S561                       6.33       0.00       0.00       6.01       0.27       0.00       0.27        0.01     0.00   0.042
  S562                       6.33       0.00       0.00       6.01       0.27       0.00       0.27        0.00     0.00   0.043
  S563                       6.33       0.00       0.00       4.91       1.37       0.00       1.37        0.03     0.01   0.216
  S564                       6.33       0.00       0.00       5.70       0.52       0.00       0.52        0.00     0.00   0.083
  S565                       6.33       0.00       0.00       6.01       0.28       0.00       0.28        0.00     0.00   0.044
  S566                       6.33       0.00       0.00       5.70       0.53       0.00       0.53        0.00     0.00   0.084
  S567                       6.33       0.00       0.00       6.19       0.12       0.00       0.12        0.00     0.00   0.019
  S568                       6.33       0.00       0.00       6.01       0.27       0.00       0.27        0.00     0.00   0.043
  S569                       6.33       0.00       0.00       5.38       0.76       0.00       0.76        0.01     0.00   0.120
  S570                       6.33       0.00       0.00       6.19       0.12       0.00       0.12        0.00     0.00   0.019
  S571                       6.33       0.00       0.00       6.01       0.27       0.00       0.27        0.00     0.00   0.043
  S572                       6.33       0.00       0.00       4.91       1.39       0.00       1.39        0.00     0.00   0.219
  S573                       6.33       0.00       0.00       3.48       2.82       0.00       2.82        0.03     0.01   0.445
  S574                       6.33       0.00       0.00       3.48       2.82       0.00       2.82        0.03     0.01   0.445
  S575                       6.33       0.00       0.00       2.22       4.03       0.00       4.03        0.06     0.02   0.636
  S576                       6.33       0.00       0.00       3.48       2.83       0.00       2.83        0.02     0.00   0.446
  S577                       6.33       0.00       0.00       4.43       1.91       0.00       1.91        0.01     0.00   0.302
  S578                       6.33       0.00       0.00       1.06       5.26       0.00       5.26        0.01     0.00   0.830
  S579                       6.33       0.00       0.00       5.70       0.52       0.00       0.52        0.01     0.00   0.082
  S580                       6.33       0.00       0.00       3.48       2.82       0.00       2.82        0.03     0.01   0.445
  S581                       6.33       0.00       0.00       5.70       0.52       0.00       0.52        0.01     0.00   0.082
  S582                       6.33       0.00       0.00       6.01       0.28       0.00       0.28        0.00     0.00   0.045
  S583                       6.33       0.00       0.00       1.06       5.28       0.00       5.28        0.01     0.00   0.833
  S584                       6.33       0.00       0.00       6.01       0.27       0.00       0.27        0.00     0.00   0.042
  S585                       6.33       0.00       0.00       1.06       5.14       0.00       5.14        0.05     0.01   0.812
  S586                       6.33       0.00       0.00       5.70       0.54       0.00       0.54        0.00     0.00   0.085
  S587                       6.33       0.00       0.00       5.70       0.52       0.00       0.52        0.01     0.00   0.082
  S588                       6.33       0.00       0.00       5.70       0.52       0.00       0.52        0.01     0.00   0.082
  S589                       6.33       0.00       0.00       6.19       0.12       0.00       0.12        0.00     0.00   0.019
  S590                       6.33       0.00       0.00       3.48       2.90       0.00       2.90        0.01     0.00   0.457
  S591                       6.33       0.00       0.00       5.70       0.52       0.00       0.52        0.01     0.00   0.082
  S592                       6.33       0.00       0.00       5.38       0.76       0.00       0.76        0.01     0.00   0.120
  S593                       6.33       0.00       0.00       4.91       1.36       0.00       1.36        0.01     0.00   0.215
  S594                       6.33       0.00       0.00       6.01       0.27       0.00       0.27        0.00     0.00   0.042
  S595                       6.33       0.00       0.00       6.19       0.12       0.00       0.12        0.00     0.00   0.019
  S596                       6.33       0.00       0.00       4.43       1.85       0.00       1.85        0.02     0.00   0.292
[...]
  S848                       6.33       0.00       0.00       5.70       0.52       0.00       0.52        0.01     0.00   0.082
  S849                       6.33       0.00       0.00       3.48       2.84       0.00       2.84        0.03     0.01   0.448
  S850                       6.33       0.00       0.00       6.01       0.27       0.00       0.27        0.00     0.00   0.043
  S851                       6.33       0.00       0.00       5.70       0.52       0.00       0.52        0.01     0.00   0.082
  S852                       6.33       0.00       0.00       5.38       0.76       0.00       0.76        0.01     0.00   0.121
  S853                       6.33       0.00       0.00       4.91       1.37       0.00       1.37        0.01     0.00   0.216
  S854                       6.33       0.00       0.00       5.70       0.52       0.00       0.52        0.01     0.00   0.082
  S855                       6.33       0.00       0.00       6.01       0.27       0.00       0.27        0.00     0.00   0.042
  S856                       6.33       0.00       0.00       4.43       1.86       0.00       1.86        0.03     0.01   0.294
  S857                       6.33       0.00       0.00       4.43       1.84       0.00       1.84        0.03     0.01   0.290
  S858                       6.33       0.00       0.00       3.48       2.84       0.00       2.84        0.01     0.00   0.448
  S859                       6.33       0.00       0.00       4.91       1.39       0.00       1.39        0.01     0.00   0.219
  S860                       6.33       0.00       0.00       2.22       4.02       0.00       4.02        0.07     0.02   0.635
  S861                       6.33       0.00       0.00       4.91       1.38       0.00       1.38        0.01     0.00   0.218
  S862                       6.33       0.00       0.00       6.01       0.27       0.00       0.27        0.00     0.00   0.043
  S863                       6.33       0.00       0.00       3.48       2.83       0.00       2.83        0.05     0.01   0.446
  S864                       6.33       0.00       0.00       5.70       0.52       0.00       0.52        0.01     0.00   0.082
  S865                       6.33       0.00       0.00       3.48       2.85       0.00       2.85        0.01     0.00   0.450
  S866                       6.33       0.00       0.00       5.70       0.52       0.00       0.52        0.00     0.00   0.083
  S867                       6.33       0.00       0.00       2.22       4.05       0.00       4.05        0.04     0.01   0.639
  S868                       6.33       0.00       0.00       3.48       2.82       0.00       2.82        0.03     0.01   0.445
  S869                       6.33       0.00       0.00       2.22       4.03       0.00       4.03        0.06     0.01   0.637
  S870                       6.33       0.00       0.00       6.01       0.27       0.00       0.27        0.00     0.00   0.042
  S871                       6.33       0.00       0.00       6.19       0.12       0.00       0.12        0.00     0.00   0.020
  S872                       6.33       0.00       0.00       5.70       0.54       0.00       0.54        0.00     0.00   0.085
  S873                       6.33       0.00       0.00       5.70       0.52       0.00       0.52        0.01     0.00   0.082
  S874                       6.33       0.00       0.00       5.70       0.52       0.00       0.52        0.01     0.00   0.082
  S875                       6.33       0.00       0.00       5.38       0.77       0.00       0.77        0.01     0.00   0.121
  S876                       6.33       0.00       0.00       3.48       2.85       0.00       2.85        0.02     0.01   0.450
  S877                       6.33       0.00       0.00       5.70       0.52       0.00       0.52        0.01     0.00   0.082
  S878                       6.33       0.00       0.00       4.91       1.38       0.00       1.38        0.02     0.01   0.218
  S879                       6.33       0.00       0.00       3.48       2.83       0.00       2.83        0.05     0.01   0.446
  S880                       6.33       0.00       0.00       4.43       1.85       0.00       1.85        0.01     0.00   0.292
  S881                       6.33       0.00       0.00       4.91       1.38       0.00       1.38        0.01     0.00   0.217
  S882                       6.33       0.00       0.00       4.91       1.37       0.00       1.37        0.01     0.00   0.216
  S883                       6.33       0.00       0.00       5.70       0.52       0.00       0.52        0.00     0.00   0.083
  S884                       6.33       0.00       0.00       4.91       1.37       0.00       1.37        0.03     0.01   0.216
  S885                       6.33       0.00       0.00       5.70       0.52       0.00       0.52        0.00     0.00   0.082
  S886                       6.33       0.00       0.00       1.06       5.20       0.00       5.20        0.02     0.01   0.820
  S887                       6.33       0.00       0.00       6.01       0.27       0.00       0.27        0.00     0.00   0.043
  S888                       6.33       0.00       0.00       5.70       0.53       0.00       0.53        0.00     0.00   0.083
  S889                       6.33       0.00       0.00       2.22       4.17       0.00       4.17        0.01     0.00   0.659
  S890                       6.33       0.00       0.00       3.48       2.83       0.00       2.83        0.05     0.01   0.446
  S891                       6.33       0.00       0.00       5.38       0.77       0.00       0.77        0.00     0.00   0.122
  S892                       6.33       0.00       0.00       6.01       0.27       0.00       0.27        0.01     0.00   0.043
  S893                       6.33       0.00       0.00       3.48       2.83       0.00       2.83        0.06     0.01   0.446
  S894                       6.33       0.00       0.00       4.91       1.37       0.00       1.37        0.03     0.01   0.217
  S895                       6.33       0.00       0.00       6.19       0.12       0.00       0.12        0.00     0.00   0.019
  S896                       6.33       0.00       0.00       5.70       0.52       0.00       0.52        0.00     0.00   0.082
  S897                       6.33       0.00       0.00       3.48       2.80       0.00       2.80        0.05     0.01   0.443
  S898                       6.33       0.00       0.00       5.38       0.76       0.00       0.76        0.01     0.00   0.120
  S899                       6.33       0.00       0.00       6.01       0.27       0.00       0.27        0.00     0.00   0.043
  S900                       6.33       0.00       0.00       6.19       0.12       0.00       0.12        0.00     0.00   0.019
  S901                       6.33       0.00       0.00       4.91       1.37       0.00       1.37        0.01     0.00   0.216
  S902                       6.33       0.00       0.00       5.70       0.52       0.00       0.52        0.00     0.00   0.082
  S903                       6.33       0.00       0.00       4.91       1.38       0.00       1.38        0.01     0.00   0.218
  S904                       6.33       0.00       0.00       1.06       5.15       0.00       5.15        0.05     0.01   0.813
  S905                       6.33       0.00       0.00       4.91       1.38       0.00       1.38        0.02     0.01   0.218
  S906                       6.33       0.00       0.00       5.70       0.52       0.00       0.52        0.00     0.00   0.083
  S907                       6.33       0.00       0.00       2.22       4.08       0.00       4.08        0.02     0.01   0.644
  S908                       6.33       0.00       0.00       3.48       2.87       0.00       2.87        0.01     0.00   0.452
  S909                       6.33       0.00       0.00       5.70       0.52       0.00       0.52        0.01     0.00   0.082
  S910                       6.33       0.00       0.00       4.43       1.86       0.00       1.86        0.02     0.01   0.294
  S911                       6.33       0.00       0.00       5.38       0.77       0.00       0.77        0.01     0.00   0.121
  S912                       6.33       0.00       0.00       6.19       0.12       0.00       0.12        0.00     0.00   0.019
  S913                       6.33       0.00       0.00       5.38       0.77       0.00       0.77        0.00     0.00   0.121
  S914                       6.33       0.00       0.00       4.91       1.36       0.00       1.36        0.02     0.01   0.214
  S915                       6.33       0.00       0.00       6.01       0.29       0.00       0.29        0.00     0.00   0.046
  S916                       6.33       0.00       0.00       6.01       0.28       0.00       0.28        0.00     0.00   0.044
  S917                       6.33       0.00       0.00       5.70       0.52       0.00       0.52        0.01     0.00   0.082
  S918                       6.33       0.00       0.00       6.01       0.29       0.00       0.29        0.00     0.00   0.046
  S919                       6.33       0.00       0.00       5.38       0.76       0.00       0.76        0.01     0.00   0.120
  S920                       6.33       0.00       0.00       2.22       4.03       0.00       4.03        0.06     0.01   0.637
  S921                       6.33       0.00       0.00       6.19       0.12       0.00       0.12        0.00     0.00   0.019
  S922                       6.33       0.00       0.00       3.48       2.82       0.00       2.82        0.04     0.01   0.446
  S923                       6.33       0.00       0.00       5.70       0.52       0.00       0.52        0.00     0.00   0.082
  S924                       6.33       0.00       0.00       4.91       1.37       0.00       1.37        0.02     0.00   0.217
  S925                       6.33       0.00       0.00       5.70       0.52       0.00       0.52        0.01     0.00   0.082
  S926                       6.33       0.00       0.00       5.38       0.77       0.00       0.77        0.00     0.00   0.121
  S927                       6.33       0.00       0.00       2.22       4.06       0.00       4.06        0.03     0.01   0.641
  S928                       6.33       0.00       0.00       3.48       2.81       0.00       2.81        0.04     0.01   0.444
  S929                       6.33       0.00       0.00       6.01       0.27       0.00       0.27        0.00     0.00   0.042
  S930                       6.33       0.00       0.00       5.38       0.77       0.00       0.77        0.01     0.00   0.121
  S931                       6.33       0.00       0.00       6.19       0.12       0.00       0.12        0.00     0.00   0.019
  S932                       6.33       0.00       0.00       6.19       0.12       0.00       0.12        0.00     0.00   0.019
  S933                       6.33       0.00       0.00       5.70       0.52       0.00       0.52        0.01     0.00   0.082
  S934                       6.33       0.00       0.00       4.43       1.85       0.00       1.85        0.03     0.01   0.291
  S935                       6.33       0.00       0.00       4.43       1.85       0.00       1.85        0.02     0.00   0.293
  S936                       6.33       0.00       0.00       3.48       2.81       0.00       2.81        0.03     0.00   0.443
  S937                       6.33       0.00       0.00       3.48       2.91       0.00       2.91        0.00     0.00   0.459
  S938                       6.33       0.00       0.00       4.43       1.84       0.00       1.84        0.02     0.00   0.290
  S939                       6.33       0.00       0.00       5.70       0.52       0.00       0.52        0.01     0.00   0.082
  S940                       6.33       0.00       0.00       5.38       0.77       0.00       0.77        0.01     0.00   0.121
  S941                       6.33       0.00       0.00       4.91       1.37       0.00       1.37        0.00     0.00   0.217
  S942                       6.33       0.00       0.00       5.70       0.52       0.00       0.52        0.00     0.00   0.083
  S943                       6.33       0.00       0.00       2.22       4.02       0.00       4.02        0.07     0.02   0.635
  S944                       6.33       0.00       0.00       3.48       2.81       0.00       2.81        0.05     0.01   0.444
  S945                       6.33       0.00       0.00       4.91       1.35       0.00       1.35        0.02     0.00   0.214
  S946                       6.33       0.00       0.00       3.48       2.81       0.00       2.81        0.05     0.01   0.444
  S947                       6.33       0.00       0.00       6.19       0.12       0.00       0.12        0.00     0.00   0.019
  S948                       6.33       0.00       0.00       3.48       2.81       0.00       2.81        0.02     0.00   0.444
  S949                       6.33       0.00       0.00       5.70       0.52       0.00       0.52        0.01     0.00   0.082
  S950                       6.33       0.00       0.00       6.01       0.27       0.00       0.27        0.00     0.00   0.043
  S951                       6.33       0.00       0.00       6.01       0.27       0.00       0.27        0.00     0.00   0.042
  S952                       6.33       0.00       0.00       6.01       0.27       0.00       0.27        0.01     0.00   0.042
  S953                       6.33       0.00       0.00       6.19       0.12       0.00       0.12        0.00     0.00   0.019
  S954                       6.33       0.00       0.00       4.91       1.38       0.00       1.38        0.02     0.01   0.217
  S955                       6.33       0.00       0.00       3.48       2.81       0.00       2.81        0.04     0.01   0.444
  S956                       6.33       0.00       0.00       6.01       0.27       0.00       0.27        0.00     0.00   0.042
  S957                       6.33       0.00       0.00       4.91       1.42       0.00       1.42        0.00     0.00   0.224
  S958                       6.33       0.00       0.00       2.22       4.03       0.00       4.03        0.07     0.02   0.636
  S959                       6.33       0.00       0.00       1.06       5.16       0.00       5.16        0.04     0.01   0.814
  S960                       6.33       0.00       0.00       6.01       0.27       0.00       0.27        0.00     0.00   0.042
  S961                       6.33       0.00       0.00       4.43       1.86       0.00       1.86        0.03     0.01   0.293
  S962                       6.33       0.00       0.00       6.01       0.27       0.00       0.27        0.00     0.00   0.043
  S963                       6.33       0.00       0.00       5.70       0.52       0.00       0.52        0.00     0.00   0.083
  S964                       6.33       0.00       0.00       5.70       0.52       0.00       0.52        0.00     0.00   0.083
  S965                       6.33       0.00       0.00       6.01       0.27       0.00       0.27        0.00     0.00   0.042
  S966                       6.33       0.00       0.00       5.38       0.77       0.00       0.77        0.01     0.00   0.121
  S967                       6.33       0.00       0.00       4.91       1.36       0.00       1.36        0.02     0.00   0.215
  S968                       6.33       0.00       0.00       5.38       0.76       0.00       0.76        0.01     0.00   0.120
  S969                       6.33       0.00       0.00       5.70       0.52       0.00       0.52        0.01     0.00   0.082
  S970                       6.33       0.00       0.00       1.06       5.37       0.00       5.37        0.00     0.00   0.847
  S971                       6.33       0.00       0.00       6.01       0.27       0.00       0.27        0.00     0.00   0.043
  S972                       6.33       0.00       0.00       1.06       5.14       0.00       5.14        0.06     0.01   0.812
  S973                       6.33       0.00       0.00       5.70       0.52       0.00       0.52        0.01     0.00   0.082
  S974                       6.33       0.00       0.00       6.01       0.29       0.00       0.29        0.00     0.00   0.046
  S975                       6.33       0.00       0.00       3.48       2.87       0.00       2.87        0.01     0.00   0.453
  S976                       6.33       0.00       0.00       5.70       0.52       0.00       0.52        0.00     0.00   0.082
  S977                       6.33       0.00       0.00       6.19       0.12       0.00       0.12        0.00     0.00   0.019
  S978                       6.33       0.00       0.00       2.22       4.03       0.00       4.03        0.07     0.02   0.636
  S979                       6.33       0.00       0.00       4.91       1.36       0.00       1.36        0.02     0.00   0.215
  S980                       6.33       0.00       0.00       6.01       0.27       0.00       0.27        0.00     0.00   0.042
  S981                       6.33       0.00       0.00       6.01       0.27       0.00       0.27        0.00     0.00   0.043
  S982                       6.33       0.00       0.00       3.48       2.82       0.00       2.82        0.05     0.01   0.445
  S983                       6.33       0.00       0.00       5.70       0.52       0.00       0.52        0.01     0.00   0.082
  S984                       6.33       0.00       0.00       4.91       1.38       0.00       1.38        0.01     0.00   0.218
  S985                       6.33       0.00       0.00       6.19       0.13       0.00       0.13        0.00     0.00   0.020
  S986                       6.33       0.00       0.00       5.70       0.53       0.00       0.53        0.00     0.00   0.083
  S987                       6.33       0.00       0.00       4.91       1.39       0.00       1.39        0.01     0.00   0.220
  S988                       6.33       0.00       0.00       5.38       0.76       0.00       0.76        0.01     0.00   0.120
  S989                       6.33       0.00       0.00       6.01       0.27       0.00       0.27        0.00     0.00   0.042
  S990                       6.33       0.00       0.00       3.48       2.88       0.00       2.88        0.01     0.00   0.454
  S991                       6.33       0.00       0.00       5.38       0.77       0.00       0.77        0.00     0.00   0.122
  S992                       6.33       0.00       0.00       1.06       5.12       0.00       5.12        0.10     0.02   0.808
  S993                       6.33       0.00       0.00       5.70       0.53       0.00       0.53        0.00     0.00   0.083
  S994                       6.33       0.00       0.00       4.43       1.86       0.00       1.86        0.01     0.00   0.293
  S995                       6.33       0.00       0.00       5.70       0.52       0.00       0.52        0.01     0.00   0.082
  S996                       6.33       0.00       0.00       6.01       0.27       0.00       0.27        0.01     0.00   0.043
  S997                       6.33       0.00       0.00       5.70       0.52       0.00       0.52        0.01     0.00   0.082
  S998                       6.33       0.00       0.00       2.22       4.30       0.00       4.30        0.00     0.00   0.679
  S999                       6.33       0.00       0.00       4.43       1.87       0.00       1.87        0.01     0.00   0.296
  S1000                      6.33       0.00       0.00       5.70       0.52       0.00       0.52        0.00     0.00   0.082
  S1001                      6.33       0.00       0.00       1.06       5.23       0.00       5.23        0.01     0.00   0.826
  

  Analysis begun on:  Tue May 23 12:22:30 2023
  Analysis ended on:  Tue May 23 12:22:31 2023
  Total elapsed time: 00:00:01