
  OWA STORM WATER MANAGEMENT MODEL - VERSION v5.2.3 (OWA 2023-03-28)
  ------------------------------------------------------------

  WARNING 01: wet weather time step reduced to recording interval for Rain Gage Raingage2
  
  ****************
  Analysis Options
  ****************
  Flow Units ............... CMS
  Process Models:
    Rainfall/Runoff ........ YES
    RDII ................... NO
    Snowmelt ............... NO
    Groundwater ............ NO
    Flow Routing ........... NO
    Water Quality .......... NO
  Infiltration Method ...... MODIFIED_GREEN_AMPT
  Starting Date ............ 06/17/2022 00:00:00
  Ending Date .............. 06/17/2022 12:00:00
  Antecedent Dry Days ...... 0.0
  Report Time Step ......... 00:15:00
  Wet Time Step ............ 00:01:00
  Dry Time Step ............ 01:00:00
  
  
  **************************        Volume         Depth
  Runoff Quantity Continuity     hectare-m            mm
  **************************     ---------       -------
  Total Precipitation ......        10.172        10.100
  Evaporation Loss .........         0.000         0.000
  Infiltration Loss ........         6.592         6.546
  Surface Runoff ...........         3.432         3.407
  Final Storage ............         0.153         0.152
  Continuity Error (%) .....        -0.054
  
  
  **************************        Volume        Volume
  Flow Routing Continuity        hectare-m      10^6 ltr
  **************************     ---------     ---------
  Dry Weather Inflow .......         0.000         0.000
  Wet Weather Inflow .......         3.432        34.318
  Groundwater Inflow .......         0.000         0.000
  RDII Inflow ..............         0.000         0.000
  External Inflow ..........         0.000         0.000
  External Outflow .........         3.432        34.318
  Flooding Loss ............         0.000         0.000
  Evaporation Loss .........         0.000         0.000
  Exfiltration Loss ........         0.000         0.000
  Initial Stored Volume ....         0.000         0.000
  Final Stored Volume ......         0.000         0.000
  Continuity Error (%) .....         0.000
  
  
  ***************************
  Subcatchment Runoff Summary
  ***************************
  
  ------------------------------------------------------------------------------------------------------------------------------
                            Total      Total      Total      Total     Imperv       Perv      Total       Total     Peak  Runoff
                           Precip      Runon       Evap      Infil     Runoff     Runoff     Runoff      Runoff   Runoff   Coeff
  Subcatchment                 mm         mm         mm         mm         mm         mm         mm    10^6 ltr      CMS
  ------------------------------------------------------------------------------------------------------------------------------
  S1                        10.10       0.00       0.00       5.91       1.95       2.17       4.12        0.02     0.02   0.407
  S2                        10.10       0.00       0.00       4.29       4.49       1.26       5.76        0.09     0.07   0.570
  S3                        10.10       0.00       0.00       7.27       0.46       2.32       2.78        0.02     0.02   0.275
  S4                        10.10       0.00       0.00       8.13       1.33       0.17       1.51        0.01     0.01   0.149
  S5                        10.10       0.00       0.00       6.48       2.19       1.35       3.54        0.05     0.03   0.351
  S6                        10.10       0.00       0.00       7.76       0.90       1.33       2.23        0.02     0.01   0.221
  S7                        10.10       0.00       0.00       8.15       0.46       1.44       1.90        0.02     0.01   0.188
  S8                        10.10       0.00       0.00       8.14       1.33       0.13       1.46        0.02     0.01   0.145
  S9                        10.10       0.00       0.00       4.19       4.49       1.37       5.86        0.05     0.04   0.580
  S10                       10.10       0.00       0.00       4.13       4.50       1.43       5.93        0.11     0.09   0.587
  S11                       10.10       0.00       0.00       5.94       2.96       1.14       4.09        0.05     0.03   0.405
  S12                       10.10       0.00       0.00       6.79       0.46       2.80       3.25        0.00     0.01   0.322
  S13                       10.10       0.00       0.00       7.56       0.90       1.53       2.43        0.04     0.02   0.241
  S14                       10.10       0.00       0.00       9.02       0.21       0.84       1.05        0.02     0.01   0.104
  S15                       10.10       0.00       0.00       4.29       4.49       1.26       5.76        0.09     0.07   0.570
  S16                       10.10       0.00       0.00       5.60       2.96       1.47       4.43        0.06     0.04   0.439
  S17                       10.10       0.00       0.00       8.12       1.33       0.22       1.55        0.01     0.00   0.154
  S18                       10.10       0.00       0.00       8.28       0.46       1.31       1.76        0.03     0.02   0.174
  S19                       10.10       0.00       0.00       6.73       2.19       1.10       3.29        0.04     0.02   0.326
  S20                       10.10       0.00       0.00       4.09       4.50       1.47       5.96        0.03     0.02   0.590
  S21                       10.10       0.00       0.00       7.88       0.90       1.21       2.11        0.02     0.01   0.209
  S22                       10.10       0.00       0.00       8.07       0.90       1.02       1.92        0.04     0.02   0.190
  S23                       10.10       0.00       0.00       6.74       2.19       1.09       3.28        0.04     0.03   0.325
  S24                       10.10       0.00       0.00       2.23       6.42       1.31       7.73        0.04     0.04   0.765
  S25                       10.10       0.00       0.00       5.55       2.20       2.28       4.48        0.00     0.00   0.443
  S26                       10.10       0.00       0.00       5.27       2.96       1.80       4.76        0.01     0.01   0.471
  S27                       10.10       0.00       0.00       5.70       2.96       1.37       4.33        0.08     0.06   0.429
  S28                       10.10       0.00       0.00       8.14       1.33       0.12       1.45        0.01     0.01   0.143
  S29                       10.10       0.00       0.00       8.15       0.46       1.43       1.89        0.02     0.01   0.187
  S30                       10.10       0.00       0.00       4.19       4.49       1.36       5.86        0.11     0.08   0.580
  S31                       10.10       0.00       0.00       3.72       4.51       1.83       6.34        0.00     0.00   0.628
  S32                       10.10       0.00       0.00       7.49       0.90       1.60       2.49        0.02     0.02   0.247
  S33                       10.10       0.00       0.00       4.14       4.50       1.42       5.91        0.04     0.03   0.585
  S34                       10.10       0.00       0.00       7.51       0.90       1.58       2.48        0.03     0.02   0.246
  S35                       10.10       0.00       0.00       2.28       6.41       1.26       7.67        0.14     0.13   0.760
  S36                       10.10       0.00       0.00       6.82       2.19       1.01       3.20        0.02     0.01   0.317
  S37                       10.10       0.00       0.00       8.15       1.33       0.06       1.39        0.02     0.01   0.138
  S38                       10.10       0.00       0.00       8.15       1.33       0.07       1.40        0.01     0.01   0.139
  S39                       10.10       0.00       0.00       9.00       0.21       0.86       1.07        0.02     0.01   0.106
  S40                       10.10       0.00       0.00       4.04       4.50       1.52       6.01        0.07     0.05   0.595
  S41                       10.10       0.00       0.00       8.09       0.90       1.00       1.90        0.02     0.01   0.188
  S42                       10.10       0.00       0.00       2.27       6.41       1.27       7.68        0.13     0.12   0.760
  S43                       10.10       0.00       0.00       4.49       4.49       1.07       5.56        0.11     0.07   0.550
  S44                       10.10       0.00       0.00       8.14       1.33       0.11       1.45        0.02     0.02   0.143
  S45                       10.10       0.00       0.00       5.56       2.96       1.51       4.47        0.05     0.04   0.442
  S46                       10.10       0.00       0.00       8.15       1.33       0.08       1.41        0.02     0.01   0.140
  S47                       10.10       0.00       0.00       6.55       2.19       1.28       3.47        0.07     0.04   0.343
  S48                       10.10       0.00       0.00       7.51       0.46       2.08       2.54        0.04     0.03   0.251
  S49                       10.10       0.00       0.00       4.19       4.49       1.37       5.86        0.10     0.08   0.580
  S50                       10.10       0.00       0.00       6.87       2.19       0.96       3.15        0.06     0.04   0.312
  S51                       10.10       0.00       0.00       2.26       6.42       1.28       7.69        0.10     0.08   0.762
  S52                       10.10       0.00       0.00       7.00       0.90       2.09       2.99        0.01     0.01   0.296
  S53                       10.10       0.00       0.00       8.48       0.21       1.39       1.60        0.01     0.00   0.158
  S54                       10.10       0.00       0.00       5.30       2.96       1.77       4.74        0.03     0.02   0.469
  S55                       10.10       0.00       0.00       7.46       0.46       2.12       2.58        0.04     0.03   0.256
  S56                       10.10       0.00       0.00       8.11       1.34       0.27       1.60        0.00     0.00   0.159
  S57                       10.10       0.00       0.00       7.59       0.90       1.50       2.39        0.04     0.03   0.237
  S58                       10.10       0.00       0.00       6.57       2.19       1.26       3.46        0.02     0.01   0.342
  S59                       10.10       0.00       0.00       7.35       0.90       1.74       2.64        0.00     0.00   0.261
  S60                       10.10       0.00       0.00       8.61       0.21       1.25       1.46        0.01     0.00   0.145
  S61                       10.10       0.00       0.00       8.15       1.33       0.08       1.41        0.02     0.01   0.140
  S62                       10.10       0.00       0.00       8.13       1.33       0.14       1.47        0.01     0.00   0.146
  S63                       10.10       0.00       0.00       5.64       2.20       2.19       4.39        0.00     0.00   0.435
  S64                       10.10       0.00       0.00       7.59       0.90       1.50       2.40        0.04     0.03   0.238
  S65                       10.10       0.00       0.00       7.71       0.21       2.16       2.36        0.00     0.00   0.234
  S66                       10.10       0.00       0.00       7.37       0.90       1.72       2.62        0.01     0.00   0.259
  S67                       10.10       0.00       0.00       5.78       2.96       1.29       4.25        0.06     0.04   0.421
  S68                       10.10       0.00       0.00       6.72       0.90       2.38       3.28        0.00     0.00   0.324
  S69                       10.10       0.00       0.00       4.30       4.49       1.25       5.75        0.10     0.07   0.569
  S70                       10.10       0.00       0.00       2.27       6.42       1.27       7.69        0.12     0.10   0.761
  S71                       10.10       0.00       0.00       8.15       1.33       0.07       1.41        0.01     0.01   0.139
  S72                       10.10       0.00       0.00       3.85       4.50       1.70       6.21        0.01     0.01   0.614
  S73                       10.10       0.00       0.00       7.15       0.46       2.44       2.90        0.02     0.01   0.287
  S74                       10.10       0.00       0.00       1.04       8.23       0.65       8.87        0.03     0.03   0.879
  S75                       10.10       0.00       0.00       4.03       4.50       1.52       6.02        0.04     0.04   0.596
  S76                       10.10       0.00       0.00       1.06       8.22       0.62       8.84        0.17     0.13   0.875
  S77                       10.10       0.00       0.00       8.13       1.33       0.15       1.49        0.00     0.00   0.147
  S78                       10.10       0.00       0.00       8.15       1.33       0.08       1.41        0.01     0.01   0.140
  S79                       10.10       0.00       0.00       3.91       4.50       1.64       6.14        0.03     0.03   0.608
  S80                       10.10       0.00       0.00       8.14       1.33       0.09       1.43        0.01     0.01   0.141
  S81                       10.10       0.00       0.00       7.74       0.90       1.35       2.25        0.01     0.00   0.223
  S82                       10.10       0.00       0.00       6.56       2.19       1.27       3.46        0.02     0.01   0.343
  S83                       10.10       0.00       0.00       2.27       6.42       1.27       7.69        0.11     0.10   0.761
  S84                       10.10       0.00       0.00       4.10       4.50       1.45       5.95        0.03     0.03   0.589
  S85                       10.10       0.00       0.00       1.05       8.22       0.64       8.86        0.07     0.05   0.877
  S86                       10.10       0.00       0.00       7.63       0.46       1.96       2.42        0.01     0.00   0.239
  S87                       10.10       0.00       0.00       5.69       2.96       1.38       4.34        0.08     0.05   0.430
  S88                       10.10       0.00       0.00       7.54       0.46       2.05       2.51        0.05     0.03   0.248
  S89                       10.10       0.00       0.00       7.06       2.19       0.77       2.96        0.06     0.03   0.293
  S90                       10.10       0.00       0.00       7.93       0.90       1.16       2.06        0.03     0.01   0.204
  S91                       10.10       0.00       0.00       7.65       0.90       1.44       2.34        0.04     0.02   0.231
  S92                       10.10       0.00       0.00       8.09       0.46       1.50       1.96        0.02     0.01   0.194
  S93                       10.10       0.00       0.00       1.03       8.23       0.66       8.89        0.01     0.01   0.880
  S94                       10.10       0.00       0.00       8.20       0.46       1.39       1.84        0.03     0.01   0.182
  S95                       10.10       0.00       0.00       7.62       0.90       1.48       2.37        0.05     0.03   0.235
  S96                       10.10       0.00       0.00       7.42       0.90       1.67       2.56        0.03     0.02   0.254
  S97                       10.10       0.00       0.00       7.37       0.46       2.22       2.68        0.03     0.02   0.265
  S98                       10.10       0.00       0.00       4.21       4.49       1.35       5.84        0.12     0.09   0.579
  S99                       10.10       0.00       0.00       2.27       6.41       1.27       7.68        0.13     0.11   0.760
  S100                      10.10       0.00       0.00       4.18       4.50       1.38       5.87        0.10     0.08   0.581
  S101                      10.10       0.00       0.00       6.66       2.19       1.17       3.36        0.03     0.02   0.333
  S102                      10.10       0.00       0.00       7.01       2.19       0.82       3.01        0.05     0.03   0.298
  S103                      10.10       0.00       0.00       7.56       0.46       2.03       2.49        0.05     0.03   0.246
  S104                      10.10       0.00       0.00       7.69       0.90       1.40       2.29        0.04     0.02   0.227
  S105                      10.10       0.00       0.00       8.02       0.90       1.07       1.96        0.03     0.02   0.194
  S106                      10.10       0.00       0.00       8.68       0.21       1.19       1.40        0.01     0.00   0.138
  S107                      10.10       0.00       0.00       4.37       4.49       1.18       5.68        0.06     0.04   0.562
  S108                      10.10       0.00       0.00       8.14       1.33       0.08       1.42        0.02     0.01   0.140
  S109                      10.10       0.00       0.00       8.15       1.33       0.07       1.41        0.02     0.01   0.139
  S110                      10.10       0.00       0.00       7.69       0.90       1.41       2.30        0.04     0.02   0.228
  S111                      10.10       0.00       0.00       6.94       2.19       0.88       3.07        0.04     0.02   0.304
  S112                      10.10       0.00       0.00       5.61       2.96       1.46       4.42        0.06     0.04   0.438
  S113                      10.10       0.00       0.00       8.15       1.33       0.07       1.40        0.01     0.01   0.139
  S114                      10.10       0.00       0.00       8.04       0.46       1.55       2.00        0.02     0.01   0.198
  S115                      10.10       0.00       0.00       2.27       6.42       1.27       7.69        0.12     0.10   0.761
  S116                      10.10       0.00       0.00       8.49       0.21       1.38       1.59        0.01     0.00   0.157
  S117                      10.10       0.00       0.00       7.06       2.19       0.77       2.96        0.06     0.03   0.293
  S118                      10.10       0.00       0.00       7.35       0.46       2.24       2.69        0.03     0.02   0.267
  S119                      10.10       0.00       0.00       1.04       8.23       0.65       8.87        0.03     0.02   0.879
  S120                      10.10       0.00       0.00       8.14       1.33       0.11       1.44        0.01     0.01   0.143
  S121                      10.10       0.00       0.00       7.48       0.90       1.61       2.51        0.01     0.01   0.249
  S122                      10.10       0.00       0.00       6.51       2.19       1.31       3.51        0.02     0.01   0.347
  S123                      10.10       0.00       0.00       6.46       2.19       1.37       3.56        0.05     0.03   0.353
  S124                      10.10       0.00       0.00       6.45       0.90       2.64       3.54        0.00     0.00   0.350
  S125                      10.10       0.00       0.00       7.47       0.46       2.11       2.57        0.04     0.03   0.254
  S126                      10.10       0.00       0.00       4.01       4.50       1.55       6.04        0.06     0.05   0.598
  S127                      10.10       0.00       0.00       8.24       0.46       1.34       1.80        0.03     0.01   0.178
  S128                      10.10       0.00       0.00       6.98       2.19       0.84       3.03        0.04     0.03   0.300
  S129                      10.10       0.00       0.00       7.14       0.46       2.45       2.90        0.02     0.01   0.287
  S130                      10.10       0.00       0.00       8.56       0.21       1.31       1.52        0.01     0.00   0.150
  S131                      10.10       0.00       0.00       7.90       0.90       1.19       2.09        0.02     0.01   0.207
  S132                      10.10       0.00       0.00       8.72       0.21       1.14       1.35        0.01     0.00   0.134
  S133                      10.10       0.00       0.00       8.15       1.33       0.07       1.40        0.03     0.02   0.138
  S134                      10.10       0.00       0.00       8.15       1.33       0.08       1.42        0.02     0.01   0.140
  S135                      10.10       0.00       0.00       8.13       1.33       0.13       1.47        0.02     0.01   0.145
  S136                      10.10       0.00       0.00       8.10       1.34       0.31       1.65        0.00     0.00   0.163
  S137                      10.10       0.00       0.00       5.43       2.96       1.64       4.60        0.03     0.02   0.456
  S138                      10.10       0.00       0.00       8.16       0.46       1.43       1.89        0.02     0.01   0.187
  S139                      10.10       0.00       0.00       2.26       6.42       1.28       7.70        0.08     0.07   0.762
  S140                      10.10       0.00       0.00       9.04       0.21       0.82       1.03        0.02     0.01   0.102
  S141                      10.10       0.00       0.00       8.09       0.46       1.50       1.96        0.02     0.01   0.194
  S142                      10.10       0.00       0.00       5.70       2.96       1.37       4.33        0.08     0.06   0.429
  S143                      10.10       0.00       0.00       8.14       1.33       0.08       1.42        0.02     0.01   0.140
  S144                      10.10       0.00       0.00       8.15       1.33       0.07       1.40        0.02     0.02   0.139
  S145                      10.10       0.00       0.00       7.09       0.46       2.49       2.95        0.01     0.01   0.292
  S146                      10.10       0.00       0.00       8.14       1.33       0.13       1.46        0.01     0.00   0.145
  S147                      10.10       0.00       0.00       6.53       2.19       1.30       3.49        0.04     0.03   0.346
  S148                      10.10       0.00       0.00       8.14       1.33       0.12       1.45        0.02     0.02   0.144
  S149                      10.10       0.00       0.00       5.99       2.20       1.84       4.03        0.01     0.01   0.399
  S150                      10.10       0.00       0.00       6.40       2.19       1.43       3.63        0.01     0.00   0.359
  S151                      10.10       0.00       0.00       6.53       2.19       1.30       3.49        0.02     0.01   0.346
  S152                      10.10       0.00       0.00       7.25       0.90       1.84       2.73        0.01     0.01   0.271
  S153                      10.10       0.00       0.00       8.14       1.33       0.10       1.44        0.01     0.01   0.142
  S154                      10.10       0.00       0.00       5.39       2.96       1.68       4.64        0.04     0.03   0.459
  S155                      10.10       0.00       0.00       5.16       2.96       1.91       4.87        0.01     0.01   0.483
  S156                      10.10       0.00       0.00       5.80       2.96       1.27       4.23        0.06     0.04   0.419
  S157                      10.10       0.00       0.00       8.83       0.21       1.04       1.25        0.01     0.01   0.124
  S158                      10.10       0.00       0.00       7.95       0.90       1.14       2.04        0.03     0.02   0.202
  S159                      10.10       0.00       0.00       8.14       1.33       0.10       1.44        0.01     0.01   0.142
  S160                      10.10       0.00       0.00       7.36       0.46       2.22       2.68        0.03     0.02   0.266
  S161                      10.10       0.00       0.00       6.22       2.19       1.61       3.81        0.02     0.02   0.377
  S162                      10.10       0.00       0.00       8.15       1.33       0.07       1.40        0.01     0.01   0.139
  S163                      10.10       0.00       0.00       8.26       0.90       0.83       1.73        0.03     0.02   0.171
  S164                      10.10       0.00       0.00       8.15       1.33       0.07       1.40        0.03     0.02   0.138
  S165                      10.10       0.00       0.00       7.43       0.46       2.16       2.62        0.03     0.03   0.259
  S166                      10.10       0.00       0.00       8.15       1.33       0.07       1.40        0.01     0.01   0.139
  S167                      10.10       0.00       0.00       6.98       0.90       2.11       3.00        0.00     0.00   0.298
  S168                      10.10       0.00       0.00       7.31       0.90       1.78       2.67        0.02     0.01   0.265
  S169                      10.10       0.00       0.00       6.88       2.19       0.94       3.14        0.03     0.02   0.310
  S170                      10.10       0.00       0.00       6.62       0.90       2.47       3.37        0.00     0.00   0.333
  S171                      10.10       0.00       0.00       6.47       2.19       1.36       3.56        0.03     0.02   0.352
  S172                      10.10       0.00       0.00       8.11       1.34       0.25       1.59        0.00     0.00   0.157
  S173                      10.10       0.00       0.00       8.14       1.33       0.09       1.42        0.01     0.01   0.141
  S174                      10.10       0.00       0.00       1.05       8.22       0.64       8.86        0.05     0.04   0.878
  S175                      10.10       0.00       0.00       5.52       2.96       1.55       4.51        0.04     0.03   0.447
  S176                      10.10       0.00       0.00       4.04       4.50       1.52       6.02        0.01     0.01   0.596
  S177                      10.10       0.00       0.00       7.09       0.90       2.01       2.90        0.01     0.01   0.287
  S178                      10.10       0.00       0.00       6.27       2.19       1.56       3.75        0.01     0.01   0.371
  S179                      10.10       0.00       0.00       8.96       0.21       0.90       1.11        0.02     0.01   0.110
  S180                      10.10       0.00       0.00       8.15       0.46       1.43       1.89        0.02     0.01   0.187
  S181                      10.10       0.00       0.00       7.41       0.46       2.17       2.63        0.03     0.03   0.261
  S182                      10.10       0.00       0.00       7.50       0.46       2.09       2.55        0.04     0.03   0.252
  S183                      10.10       0.00       0.00       7.15       0.90       1.94       2.84        0.01     0.01   0.281
  S184                      10.10       0.00       0.00       2.25       6.42       1.29       7.71        0.08     0.07   0.763
  S185                      10.10       0.00       0.00       5.82       2.96       1.25       4.21        0.07     0.04   0.417
  S186                      10.10       0.00       0.00       8.15       1.33       0.07       1.40        0.03     0.02   0.138
  S187                      10.10       0.00       0.00       7.01       0.90       2.08       2.98        0.01     0.01   0.295
  S188                      10.10       0.00       0.00       7.41       0.90       1.68       2.58        0.00     0.00   0.255
  S189                      10.10       0.00       0.00       7.76       0.90       1.33       2.23        0.01     0.00   0.221
  S190                      10.10       0.00       0.00       7.37       0.46       2.21       2.67        0.03     0.02   0.264
  S191                      10.10       0.00       0.00       7.25       0.90       1.84       2.74        0.00     0.00   0.271
  S192                      10.10       0.00       0.00       8.15       1.33       0.08       1.41        0.02     0.01   0.140
  S193                      10.10       0.00       0.00       7.00       0.46       2.59       3.05        0.01     0.01   0.302
  S194                      10.10       0.00       0.00       8.95       0.21       0.91       1.12        0.02     0.01   0.111
  S195                      10.10       0.00       0.00       8.06       0.90       1.03       1.92        0.04     0.02   0.190
  S196                      10.10       0.00       0.00       7.13       0.90       1.97       2.86        0.01     0.01   0.284
  S197                      10.10       0.00       0.00       4.17       4.50       1.38       5.88        0.10     0.07   0.582
  S198                      10.10       0.00       0.00       8.15       1.33       0.06       1.39        0.02     0.01   0.137
  S199                      10.10       0.00       0.00       8.15       1.33       0.07       1.40        0.02     0.01   0.139
  S200                      10.10       0.00       0.00       7.93       0.90       1.17       2.06        0.03     0.01   0.204
  S201                      10.10       0.00       0.00       8.32       0.46       1.27       1.73        0.03     0.02   0.171
  S202                      10.10       0.00       0.00       6.82       2.19       1.01       3.20        0.05     0.03   0.317
  S203                      10.10       0.00       0.00       5.94       2.96       1.13       4.09        0.05     0.03   0.405
  S204                      10.10       0.00       0.00       2.26       6.42       1.29       7.70        0.08     0.07   0.763
  S205                      10.10       0.00       0.00       8.14       1.33       0.10       1.44        0.01     0.01   0.142
  S206                      10.10       0.00       0.00       7.49       0.46       2.10       2.56        0.04     0.03   0.253
  S207                      10.10       0.00       0.00       7.91       0.46       1.68       2.14        0.01     0.01   0.212
  S208                      10.10       0.00       0.00       8.24       0.46       1.35       1.81        0.03     0.01   0.179
  S209                      10.10       0.00       0.00       1.04       8.23       0.65       8.88        0.03     0.02   0.879
  S210                      10.10       0.00       0.00       7.64       0.46       1.95       2.40        0.01     0.00   0.238
  S211                      10.10       0.00       0.00       1.06       8.22       0.63       8.85        0.12     0.09   0.876
  S212                      10.10       0.00       0.00       8.13       1.33       0.17       1.51        0.01     0.01   0.149
  S213                      10.10       0.00       0.00       7.35       0.90       1.74       2.64        0.02     0.02   0.261
  S214                      10.10       0.00       0.00       8.10       1.34       0.28       1.62        0.00     0.00   0.160
  S215                      10.10       0.00       0.00       2.24       6.42       1.30       7.72        0.05     0.05   0.765
  S216                      10.10       0.00       0.00       2.27       6.42       1.28       7.69        0.10     0.09   0.761
  S217                      10.10       0.00       0.00       7.72       0.90       1.37       2.26        0.02     0.01   0.224
  S218                      10.10       0.00       0.00       6.38       2.19       1.45       3.64        0.01     0.00   0.361
  S219                      10.10       0.00       0.00       7.55       0.90       1.54       2.44        0.01     0.01   0.241
  S220                      10.10       0.00       0.00       5.89       2.96       1.18       4.14        0.04     0.03   0.410
  S221                      10.10       0.00       0.00       3.98       4.50       1.57       6.07        0.03     0.03   0.601
  S222                      10.10       0.00       0.00       5.41       2.96       1.67       4.63        0.04     0.03   0.458
  S223                      10.10       0.00       0.00       8.22       0.46       1.37       1.82        0.03     0.01   0.181
  S224                      10.10       0.00       0.00       4.33       4.49       1.23       5.72        0.11     0.08   0.567
  S225                      10.10       0.00       0.00       7.53       0.90       1.56       2.45        0.04     0.02   0.243
  S226                      10.10       0.00       0.00       8.15       1.33       0.07       1.40        0.03     0.02   0.138
  S227                      10.10       0.00       0.00       8.58       0.21       1.28       1.49        0.01     0.00   0.148
  S228                      10.10       0.00       0.00       6.18       2.20       1.65       3.84        0.00     0.00   0.380
  S229                      10.10       0.00       0.00       6.66       2.19       1.17       3.36        0.06     0.04   0.333
  S230                      10.10       0.00       0.00       8.14       1.33       0.09       1.42        0.01     0.01   0.141
  S231                      10.10       0.00       0.00       6.16       2.20       1.67       3.86        0.01     0.01   0.382
  S232                      10.10       0.00       0.00       5.73       2.96       1.34       4.30        0.02     0.01   0.426
  S233                      10.10       0.00       0.00       7.49       0.46       2.10       2.55        0.04     0.03   0.253
  S234                      10.10       0.00       0.00       7.69       0.90       1.40       2.30        0.01     0.01   0.228
  S235                      10.10       0.00       0.00       5.60       2.96       1.47       4.44        0.06     0.04   0.439
  S236                      10.10       0.00       0.00       5.83       2.20       2.00       4.20        0.00     0.00   0.416
  S237                      10.10       0.00       0.00       3.83       4.50       1.73       6.23        0.02     0.01   0.617
  S238                      10.10       0.00       0.00       7.22       0.90       1.87       2.77        0.02     0.01   0.274
  S239                      10.10       0.00       0.00       6.36       2.19       1.47       3.66        0.02     0.02   0.363
  S240                      10.10       0.00       0.00       2.25       6.42       1.29       7.71        0.08     0.07   0.763
  S241                      10.10       0.00       0.00       4.02       4.50       1.53       6.03        0.04     0.03   0.597
  S242                      10.10       0.00       0.00       7.84       0.90       1.25       2.15        0.02     0.01   0.213
  S243                      10.10       0.00       0.00       7.82       0.90       1.27       2.16        0.02     0.01   0.214
  S244                      10.10       0.00       0.00       8.17       0.46       1.41       1.87        0.02     0.01   0.185
  S245                      10.10       0.00       0.00       8.20       0.46       1.39       1.85        0.03     0.01   0.183
  S246                      10.10       0.00       0.00       1.06       8.22       0.62       8.84        0.16     0.13   0.875
  S247                      10.10       0.00       0.00       5.64       2.96       1.43       4.39        0.07     0.05   0.434
  S248                      10.10       0.00       0.00       8.14       1.33       0.11       1.44        0.03     0.02   0.143
  S249                      10.10       0.00       0.00       7.39       0.90       1.70       2.60        0.02     0.02   0.257
  S250                      10.10       0.00       0.00       7.92       0.90       1.17       2.07        0.03     0.01   0.205
  S251                      10.10       0.00       0.00       8.14       1.33       0.09       1.42        0.01     0.00   0.141
  S252                      10.10       0.00       0.00       7.92       0.46       1.67       2.13        0.01     0.01   0.210
  S253                      10.10       0.00       0.00       6.01       2.96       1.06       4.02        0.06     0.04   0.398
  S254                      10.10       0.00       0.00       7.12       0.46       2.47       2.93        0.01     0.01   0.290
  S255                      10.10       0.00       0.00       3.95       4.50       1.60       6.10        0.01     0.01   0.604
  S256                      10.10       0.00       0.00       7.45       0.46       2.14       2.59        0.00     0.00   0.257
  S257                      10.10       0.00       0.00       8.15       1.33       0.05       1.38        0.03     0.02   0.136
  S258                      10.10       0.00       0.00       7.25       0.46       2.33       2.79        0.02     0.02   0.276
  S259                      10.10       0.00       0.00       5.20       2.96       1.87       4.84        0.01     0.00   0.479
  S260                      10.10       0.00       0.00       8.13       1.33       0.18       1.51        0.01     0.01   0.150
  S261                      10.10       0.00       0.00       4.42       4.49       1.14       5.63        0.08     0.05   0.557
  S262                      10.10       0.00       0.00       5.78       2.96       1.29       4.25        0.03     0.02   0.421
  S263                      10.10       0.00       0.00       6.50       0.46       3.09       3.55        0.00     0.00   0.352
  S264                      10.10       0.00       0.00       1.06       8.22       0.62       8.84        0.17     0.13   0.875
  S265                      10.10       0.00       0.00       7.15       0.90       1.94       2.83        0.00     0.00   0.281
  S266                      10.10       0.00       0.00       5.45       2.96       1.62       4.58        0.03     0.02   0.454
  S267                      10.10       0.00       0.00       7.69       0.90       1.40       2.29        0.01     0.01   0.227
  S268                      10.10       0.00       0.00       7.53       0.90       1.56       2.45        0.01     0.01   0.243
  S269                      10.10       0.00       0.00       6.76       0.46       2.83       3.29        0.00     0.01   0.326
  S270                      10.10       0.00       0.00       8.06       0.90       1.03       1.93        0.04     0.02   0.191
  S271                      10.10       0.00       0.00       4.46       4.49       1.10       5.59        0.09     0.06   0.554
  S272                      10.10       0.00       0.00       8.15       1.33       0.05       1.38        0.02     0.01   0.137
  S273                      10.10       0.00       0.00       7.95       0.90       1.14       2.04        0.03     0.02   0.202
  S274                      10.10       0.00       0.00       8.15       1.33       0.05       1.38        0.02     0.01   0.136
  S275                      10.10       0.00       0.00       5.90       2.20       1.93       4.12        0.00     0.00   0.408
  S276                      10.10       0.00       0.00       4.16       4.50       1.40       5.90        0.09     0.07   0.584
  S277                      10.10       0.00       0.00       8.15       1.33       0.06       1.39        0.03     0.02   0.138
  S278                      10.10       0.00       0.00       8.14       1.33       0.12       1.45        0.02     0.02   0.144
  S279                      10.10       0.00       0.00       7.04       0.90       2.05       2.95        0.01     0.01   0.292
  S280                      10.10       0.00       0.00       8.17       0.46       1.42       1.87        0.02     0.01   0.186
  S281                      10.10       0.00       0.00       2.21       6.42       1.34       7.76        0.02     0.02   0.769
  S282                      10.10       0.00       0.00       7.84       0.90       1.25       2.15        0.01     0.01   0.212
  S283                      10.10       0.00       0.00       1.06       8.22       0.62       8.84        0.17     0.13   0.875
  S284                      10.10       0.00       0.00       7.44       0.90       1.65       2.55        0.03     0.02   0.252
  S285                      10.10       0.00       0.00       7.11       0.90       1.98       2.88        0.01     0.01   0.285
  S286                      10.10       0.00       0.00       5.84       2.96       1.23       4.19        0.07     0.05   0.415
  S287                      10.10       0.00       0.00       8.15       1.33       0.06       1.39        0.02     0.01   0.137
  S288                      10.10       0.00       0.00       5.18       2.96       1.89       4.86        0.00     0.00   0.481
  S289                      10.10       0.00       0.00       7.74       0.90       1.35       2.24        0.02     0.01   0.222
  S290                      10.10       0.00       0.00       7.53       0.46       2.06       2.52        0.01     0.00   0.249
  S291                      10.10       0.00       0.00       7.52       0.46       2.07       2.52        0.04     0.03   0.250
  S292                      10.10       0.00       0.00       5.57       2.96       1.50       4.46        0.08     0.06   0.442
  S293                      10.10       0.00       0.00       8.15       1.33       0.07       1.40        0.01     0.01   0.138
  S294                      10.10       0.00       0.00       6.52       2.19       1.31       3.51        0.06     0.04   0.347
  S295                      10.10       0.00       0.00       1.06       8.22       0.63       8.85        0.14     0.11   0.876
  S296                      10.10       0.00       0.00       8.14       1.33       0.10       1.43        0.01     0.01   0.141
  S297                      10.10       0.00       0.00       8.14       1.33       0.11       1.45        0.02     0.02   0.143
  S298                      10.10       0.00       0.00       7.19       0.46       2.40       2.86        0.02     0.02   0.283
  S299                      10.10       0.00       0.00       6.92       2.19       0.91       3.10        0.03     0.02   0.307
  S300                      10.10       0.00       0.00       5.99       2.96       1.08       4.04        0.06     0.04   0.400
  S301                      10.10       0.00       0.00       5.03       2.97       2.05       5.01        0.01     0.00   0.496
  S302                      10.10       0.00       0.00       7.56       0.90       1.53       2.43        0.01     0.01   0.240
  S303                      10.10       0.00       0.00       8.31       0.46       1.28       1.73        0.03     0.02   0.172
  S304                      10.10       0.00       0.00       7.53       0.90       1.56       2.45        0.01     0.01   0.243
  S305                      10.10       0.00       0.00       7.27       0.90       1.82       2.72        0.00     0.00   0.269
  S306                      10.10       0.00       0.00       7.99       0.90       1.10       2.00        0.03     0.02   0.198
  S307                      10.10       0.00       0.00       7.56       0.90       1.53       2.43        0.01     0.01   0.240
  S308                      10.10       0.00       0.00       5.79       2.96       1.28       4.24        0.06     0.04   0.420
  S309                      10.10       0.00       0.00       3.89       4.50       1.67       6.17        0.02     0.01   0.611
  S310                      10.10       0.00       0.00       5.58       2.96       1.49       4.45        0.01     0.01   0.441
  S311                      10.10       0.00       0.00       7.95       0.90       1.14       2.04        0.03     0.02   0.202
  S312                      10.10       0.00       0.00       7.59       0.90       1.50       2.39        0.04     0.03   0.237
  S313                      10.10       0.00       0.00       5.63       2.96       1.44       4.40        0.07     0.05   0.435
  S314                      10.10       0.00       0.00       4.13       4.50       1.43       5.92        0.11     0.09   0.586
  S315                      10.10       0.00       0.00       8.14       1.33       0.10       1.43        0.01     0.01   0.142
  S316                      10.10       0.00       0.00       8.27       0.46       1.31       1.77        0.03     0.02   0.175
  S317                      10.10       0.00       0.00       8.10       0.46       1.48       1.94        0.02     0.01   0.192
  S318                      10.10       0.00       0.00       8.30       0.46       1.29       1.75        0.03     0.02   0.173
  S319                      10.10       0.00       0.00       4.26       4.49       1.30       5.79        0.08     0.06   0.574
  S320                      10.10       0.00       0.00       6.33       2.19       1.50       3.70        0.02     0.01   0.366
  S321                      10.10       0.00       0.00       8.13       1.33       0.14       1.47        0.00     0.00   0.146
  S322                      10.10       0.00       0.00       7.65       0.46       1.93       2.39        0.01     0.00   0.237
  S323                      10.10       0.00       0.00       8.15       1.33       0.08       1.41        0.02     0.01   0.140
  S324                      10.10       0.00       0.00       5.85       2.96       1.22       4.18        0.07     0.05   0.414
  S325                      10.10       0.00       0.00       8.04       0.90       1.06       1.95        0.03     0.02   0.193
  S326                      10.10       0.00       0.00       6.43       2.19       1.40       3.59        0.02     0.01   0.356
  S327                      10.10       0.00       0.00       5.47       2.96       1.60       4.56        0.05     0.04   0.452
  S328                      10.10       0.00       0.00       6.75       2.19       1.08       3.27        0.04     0.03   0.324
  S329                      10.10       0.00       0.00       5.51       2.96       1.56       4.53        0.06     0.04   0.448
  S330                      10.10       0.00       0.00       8.05       0.90       1.04       1.93        0.04     0.02   0.191
  S331                      10.10       0.00       0.00       7.28       0.90       1.81       2.71        0.02     0.01   0.268
  S332                      10.10       0.00       0.00       7.07       2.19       0.76       2.95        0.06     0.04   0.292
  S333                      10.10       0.00       0.00       5.95       2.96       1.12       4.08        0.05     0.03   0.404
  S334                      10.10       0.00       0.00       5.45       2.96       1.62       4.58        0.03     0.02   0.454
  S335                      10.10       0.00       0.00       7.24       0.46       2.35       2.80        0.02     0.02   0.278
  S336                      10.10       0.00       0.00       5.55       2.96       1.52       4.48        0.05     0.03   0.444
  S337                      10.10       0.00       0.00       7.41       0.90       1.68       2.58        0.00     0.00   0.255
  S338                      10.10       0.00       0.00       1.06       8.22       0.62       8.84        0.15     0.12   0.876
  S339                      10.10       0.00       0.00       6.30       0.90       2.80       3.70        0.00     0.00   0.366
  S340                      10.10       0.00       0.00       7.98       0.90       1.11       2.01        0.03     0.02   0.199
  S341                      10.10       0.00       0.00       7.06       0.46       2.53       2.99        0.01     0.01   0.296
  S342                      10.10       0.00       0.00       1.06       8.22       0.63       8.85        0.11     0.09   0.876
  S343                      10.10       0.00       0.00       5.61       2.96       1.46       4.42        0.06     0.04   0.438
  S344                      10.10       0.00       0.00       6.18       2.20       1.65       3.84        0.02     0.01   0.381
  S345                      10.10       0.00       0.00       7.77       0.90       1.32       2.22        0.02     0.01   0.220
  S346                      10.10       0.00       0.00       7.45       0.90       1.64       2.54        0.03     0.02   0.251
  S347                      10.10       0.00       0.00       8.07       0.90       1.02       1.92        0.04     0.02   0.190
  S348                      10.10       0.00       0.00       8.12       0.46       1.47       1.93        0.02     0.01   0.191
  S349                      10.10       0.00       0.00       8.99       0.21       0.87       1.08        0.02     0.01   0.107
  S350                      10.10       0.00       0.00       7.63       0.90       1.46       2.35        0.01     0.01   0.233
  S351                      10.10       0.00       0.00       6.07       2.96       1.00       3.96        0.07     0.05   0.392
  S352                      10.10       0.00       0.00       8.13       0.46       1.46       1.91        0.02     0.01   0.190
  S353                      10.10       0.00       0.00       8.15       1.33       0.07       1.40        0.03     0.02   0.138
  S354                      10.10       0.00       0.00       7.33       0.90       1.76       2.66        0.02     0.01   0.263
  S355                      10.10       0.00       0.00       5.81       2.96       1.26       4.22        0.06     0.04   0.418
  S356                      10.10       0.00       0.00       7.94       0.90       1.15       2.04        0.03     0.02   0.202
  S357                      10.10       0.00       0.00       7.51       0.90       1.58       2.48        0.01     0.01   0.246
  S358                      10.10       0.00       0.00       8.29       0.46       1.29       1.75        0.03     0.02   0.173
  S359                      10.10       0.00       0.00       6.82       0.90       2.28       3.17        0.00     0.00   0.314
  S360                      10.10       0.00       0.00       8.04       0.90       1.05       1.94        0.04     0.02   0.193
  S361                      10.10       0.00       0.00       8.02       0.90       1.07       1.97        0.03     0.02   0.195
  S362                      10.10       0.00       0.00       8.23       0.90       0.86       1.76        0.03     0.02   0.174
  S363                      10.10       0.00       0.00       7.54       0.90       1.55       2.45        0.03     0.02   0.243
  S364                      10.10       0.00       0.00       8.90       0.21       0.97       1.18        0.01     0.01   0.116
  S365                      10.10       0.00       0.00       7.92       0.90       1.17       2.07        0.03     0.01   0.205
  S366                      10.10       0.00       0.00       8.95       0.21       0.92       1.13        0.02     0.01   0.111
  S367                      10.10       0.00       0.00       7.77       0.90       1.32       2.22        0.02     0.01   0.220
  S368                      10.10       0.00       0.00       8.82       0.21       1.04       1.25        0.01     0.01   0.124
  S369                      10.10       0.00       0.00       2.27       6.41       1.27       7.68        0.12     0.10   0.761
  S370                      10.10       0.00       0.00       4.19       4.49       1.36       5.86        0.11     0.08   0.580
  S371                      10.10       0.00       0.00       5.15       2.97       1.92       4.89        0.01     0.01   0.484
  S372                      10.10       0.00       0.00       7.86       0.90       1.23       2.13        0.02     0.01   0.211
  S373                      10.10       0.00       0.00       1.06       8.22       0.62       8.84        0.16     0.13   0.875
  S374                      10.10       0.00       0.00       3.78       4.50       1.77       6.28        0.01     0.01   0.622
  S375                      10.10       0.00       0.00       5.31       2.96       1.76       4.73        0.02     0.01   0.468
  S376                      10.10       0.00       0.00       2.28       6.41       1.26       7.67        0.15     0.13   0.760
  S377                      10.10       0.00       0.00       7.68       0.90       1.41       2.31        0.01     0.01   0.228
  S378                      10.10       0.00       0.00       7.60       0.90       1.49       2.38        0.04     0.03   0.236
  S379                      10.10       0.00       0.00       8.14       1.33       0.10       1.44        0.01     0.01   0.142
  S380                      10.10       0.00       0.00       6.23       2.19       1.59       3.79        0.02     0.02   0.375
  S381                      10.10       0.00       0.00       7.88       0.90       1.21       2.10        0.02     0.01   0.208
  S382                      10.10       0.00       0.00       6.85       2.19       0.97       3.17        0.06     0.04   0.313
  S383                      10.10       0.00       0.00       8.06       1.34       0.50       1.84        0.00     0.00   0.182
  S384                      10.10       0.00       0.00       5.69       2.96       1.38       4.34        0.04     0.03   0.430
  S385                      10.10       0.00       0.00       6.76       0.46       2.83       3.29        0.00     0.01   0.326
  S386                      10.10       0.00       0.00       4.33       4.49       1.22       5.72        0.05     0.04   0.566
  S387                      10.10       0.00       0.00       7.05       0.90       2.04       2.94        0.01     0.01   0.291
  S388                      10.10       0.00       0.00       7.01       0.90       2.08       2.98        0.01     0.01   0.295
  S389                      10.10       0.00       0.00       8.30       0.46       1.29       1.74        0.03     0.02   0.173
  S390                      10.10       0.00       0.00       4.21       4.49       1.35       5.84        0.03     0.02   0.579
  S391                      10.10       0.00       0.00       9.03       0.21       0.83       1.04        0.02     0.01   0.103
  S392                      10.10       0.00       0.00       8.13       1.33       0.15       1.49        0.00     0.00   0.147
  S393                      10.10       0.00       0.00       7.96       0.90       1.13       2.03        0.03     0.02   0.201
  S394                      10.10       0.00       0.00       4.44       4.49       1.12       5.61        0.09     0.06   0.556
  S395                      10.10       0.00       0.00       1.04       8.23       0.65       8.88        0.03     0.02   0.879
  S396                      10.10       0.00       0.00       6.07       2.20       1.76       3.96        0.01     0.01   0.392
  S397                      10.10       0.00       0.00       8.15       1.33       0.06       1.39        0.02     0.01   0.137
  S398                      10.10       0.00       0.00       5.36       2.96       1.71       4.67        0.03     0.03   0.463
  S399                      10.10       0.00       0.00       8.13       1.33       0.15       1.48        0.00     0.00   0.147
  S400                      10.10       0.00       0.00       7.71       0.90       1.38       2.27        0.01     0.01   0.225
  S401                      10.10       0.00       0.00       5.93       2.96       1.14       4.10        0.05     0.03   0.406
  S402                      10.10       0.00       0.00       8.22       0.46       1.37       1.83        0.03     0.01   0.181
  S403                      10.10       0.00       0.00       4.21       4.49       1.34       5.84        0.06     0.05   0.578
  S404                      10.10       0.00       0.00       6.56       2.19       1.27       3.46        0.04     0.03   0.342
  S405                      10.10       0.00       0.00       4.06       4.50       1.49       5.99        0.05     0.04   0.593
  S406                      10.10       0.00       0.00       7.59       0.90       1.50       2.40        0.04     0.03   0.237
  S407                      10.10       0.00       0.00       8.15       1.33       0.05       1.38        0.03     0.02   0.136
  S408                      10.10       0.00       0.00       8.14       1.33       0.12       1.45        0.01     0.01   0.144
  S409                      10.10       0.00       0.00       7.57       0.90       1.52       2.42        0.04     0.02   0.239
  S410                      10.10       0.00       0.00       8.14       1.33       0.09       1.42        0.01     0.01   0.141
  S411                      10.10       0.00       0.00       7.76       0.90       1.33       2.22        0.02     0.01   0.220
  S412                      10.10       0.00       0.00       7.98       0.90       1.11       2.00        0.03     0.02   0.198
  S413                      10.10       0.00       0.00       7.02       0.90       2.07       2.97        0.01     0.01   0.294
  S414                      10.10       0.00       0.00       8.01       0.90       1.08       1.98        0.01     0.01   0.196
  S415                      10.10       0.00       0.00       6.53       2.19       1.30       3.49        0.04     0.03   0.346
  S416                      10.10       0.00       0.00       3.97       4.50       1.59       6.09        0.01     0.01   0.603
  S417                      10.10       0.00       0.00       5.88       2.96       1.19       4.15        0.04     0.02   0.411
  S418                      10.10       0.00       0.00       7.55       0.90       1.54       2.44        0.01     0.01   0.241
  S419                      10.10       0.00       0.00       6.18       2.20       1.64       3.84        0.02     0.01   0.380
  S420                      10.10       0.00       0.00       2.27       6.42       1.27       7.69        0.11     0.10   0.761
  S421                      10.10       0.00       0.00       6.72       2.19       1.11       3.30        0.02     0.01   0.327
  S422                      10.10       0.00       0.00       5.48       2.96       1.59       4.55        0.06     0.04   0.450
  S423                      10.10       0.00       0.00       6.83       2.19       0.99       3.19        0.06     0.03   0.315
  S424                      10.10       0.00       0.00       7.49       0.90       1.60       2.50        0.03     0.02   0.247
  S425                      10.10       0.00       0.00       6.99       0.90       2.10       3.00        0.01     0.01   0.297
  S426                      10.10       0.00       0.00       4.45       4.49       1.11       5.60        0.09     0.06   0.554
  S427                      10.10       0.00       0.00       8.15       1.33       0.08       1.41        0.02     0.01   0.140
  S428                      10.10       0.00       0.00       8.13       1.33       0.14       1.47        0.01     0.01   0.146
  S429                      10.10       0.00       0.00       8.13       1.33       0.13       1.47        0.01     0.00   0.145
  S430                      10.10       0.00       0.00       5.75       2.96       1.32       4.28        0.02     0.02   0.424
  S431                      10.10       0.00       0.00       8.14       1.33       0.10       1.43        0.01     0.00   0.142
  S432                      10.10       0.00       0.00       5.98       2.96       1.09       4.05        0.05     0.04   0.401
  S433                      10.10       0.00       0.00       8.13       1.33       0.14       1.47        0.01     0.00   0.146
  S434                      10.10       0.00       0.00       6.58       0.90       2.51       3.41        0.00     0.00   0.338
  S435                      10.10       0.00       0.00       2.28       6.41       1.26       7.68        0.14     0.12   0.760
  S436                      10.10       0.00       0.00       7.61       0.90       1.48       2.37        0.03     0.02   0.235
  S437                      10.10       0.00       0.00       7.60       0.90       1.49       2.39        0.04     0.03   0.236
  S438                      10.10       0.00       0.00       5.01       2.97       2.06       5.03        0.01     0.01   0.498
  S439                      10.10       0.00       0.00       4.05       4.50       1.51       6.01        0.05     0.04   0.595
  S440                      10.10       0.00       0.00       7.69       0.46       1.90       2.36        0.01     0.01   0.233
  S441                      10.10       0.00       0.00       5.66       2.96       1.41       4.37        0.04     0.03   0.433
  S442                      10.10       0.00       0.00       8.15       1.33       0.08       1.41        0.02     0.01   0.139
  S443                      10.10       0.00       0.00       7.49       0.90       1.60       2.50        0.03     0.02   0.248
  S444                      10.10       0.00       0.00       7.24       0.90       1.85       2.75        0.02     0.01   0.272
  S445                      10.10       0.00       0.00       7.28       0.46       2.31       2.77        0.02     0.02   0.274
  S446                      10.10       0.00       0.00       7.32       0.46       2.26       2.72        0.03     0.02   0.269
  S447                      10.10       0.00       0.00       8.05       0.46       1.53       1.99        0.02     0.01   0.197
  S448                      10.10       0.00       0.00       7.41       0.90       1.68       2.58        0.03     0.02   0.255
  S449                      10.10       0.00       0.00       8.18       0.90       0.91       1.80        0.02     0.01   0.179
  S450                      10.10       0.00       0.00       4.35       4.49       1.20       5.70        0.06     0.04   0.564
  S451                      10.10       0.00       0.00       8.41       0.21       1.46       1.67        0.00     0.00   0.165
  S452                      10.10       0.00       0.00       9.03       0.21       0.83       1.04        0.02     0.01   0.103
  S453                      10.10       0.00       0.00       7.44       0.46       2.15       2.60        0.04     0.03   0.258
  S454                      10.10       0.00       0.00       4.13       4.50       1.42       5.92        0.08     0.06   0.586
  S455                      10.10       0.00       0.00       3.92       4.50       1.64       6.14        0.03     0.03   0.608
  S456                      10.10       0.00       0.00       6.88       0.90       2.21       3.11        0.00     0.00   0.308
  S457                      10.10       0.00       0.00       8.01       0.90       1.08       1.98        0.03     0.02   0.196
  S458                      10.10       0.00       0.00       8.15       1.33       0.08       1.41        0.02     0.01   0.140
  S459                      10.10       0.00       0.00       8.96       0.21       0.91       1.12        0.02     0.01   0.110
  S460                      10.10       0.00       0.00       6.56       2.19       1.27       3.46        0.04     0.03   0.343
  S461                      10.10       0.00       0.00       7.55       0.90       1.54       2.44        0.04     0.02   0.241
  S462                      10.10       0.00       0.00       7.03       0.90       2.07       2.96        0.00     0.00   0.293
  S463                      10.10       0.00       0.00       8.03       0.90       1.06       1.96        0.03     0.02   0.194
  S464                      10.10       0.00       0.00       2.24       6.42       1.30       7.72        0.06     0.05   0.764
  S465                      10.10       0.00       0.00       3.82       4.50       1.74       6.24        0.00     0.00   0.618
  S466                      10.10       0.00       0.00       7.70       0.90       1.39       2.29        0.04     0.02   0.227
  S467                      10.10       0.00       0.00       6.87       0.46       2.72       3.18        0.01     0.01   0.315
  S468                      10.10       0.00       0.00       7.55       0.90       1.54       2.44        0.01     0.01   0.241
  S469                      10.10       0.00       0.00       8.01       0.90       1.08       1.97        0.03     0.02   0.195
  S470                      10.10       0.00       0.00       1.06       8.22       0.63       8.85        0.12     0.09   0.876
  S471                      10.10       0.00       0.00       9.03       0.21       0.83       1.04        0.02     0.01   0.103
  S472                      10.10       0.00       0.00       7.33       0.46       2.26       2.72        0.03     0.02   0.269
  S473                      10.10       0.00       0.00       8.90       0.21       0.97       1.18        0.01     0.01   0.117
  S474                      10.10       0.00       0.00       8.25       0.46       1.34       1.80        0.03     0.01   0.178
  S475                      10.10       0.00       0.00       3.80       4.50       1.76       6.26        0.01     0.01   0.620
  S476                      10.10       0.00       0.00       7.91       0.90       1.18       2.07        0.02     0.01   0.205
  S477                      10.10       0.00       0.00       6.97       2.19       0.86       3.05        0.04     0.02   0.302
  S478                      10.10       0.00       0.00       8.24       0.90       0.85       1.75        0.03     0.02   0.173
  S479                      10.10       0.00       0.00       8.14       1.33       0.13       1.46        0.02     0.01   0.145
  S480                      10.10       0.00       0.00       8.13       1.33       0.18       1.51        0.01     0.01   0.149
  S481                      10.10       0.00       0.00       8.13       0.46       1.46       1.91        0.02     0.01   0.190
  S482                      10.10       0.00       0.00       6.36       2.19       1.47       3.66        0.02     0.02   0.363
  S483                      10.10       0.00       0.00       4.26       4.49       1.29       5.79        0.08     0.06   0.573
  S484                      10.10       0.00       0.00       5.54       2.96       1.53       4.49        0.07     0.05   0.445
  S485                      10.10       0.00       0.00       1.04       8.23       0.65       8.88        0.03     0.02   0.879
  S486                      10.10       0.00       0.00       8.21       0.46       1.38       1.83        0.03     0.01   0.181
  S487                      10.10       0.00       0.00       8.14       1.33       0.11       1.44        0.01     0.01   0.142
  S488                      10.10       0.00       0.00       7.44       0.46       2.14       2.60        0.04     0.03   0.257
  S489                      10.10       0.00       0.00       6.86       2.19       0.97       3.16        0.06     0.04   0.313
  S490                      10.10       0.00       0.00       7.88       0.90       1.21       2.11        0.02     0.01   0.208
  S491                      10.10       0.00       0.00       8.02       0.46       1.57       2.02        0.02     0.01   0.200
  S492                      10.10       0.00       0.00       7.77       0.90       1.32       2.21        0.02     0.01   0.219
  S493                      10.10       0.00       0.00       7.26       0.46       2.33       2.78        0.02     0.02   0.276
  S494                      10.10       0.00       0.00       6.57       2.19       1.26       3.45        0.05     0.03   0.342
  S495                      10.10       0.00       0.00       8.98       0.21       0.89       1.09        0.02     0.01   0.108
  S496                      10.10       0.00       0.00       2.28       6.41       1.26       7.68        0.14     0.13   0.760
  S497                      10.10       0.00       0.00       6.68       2.19       1.15       3.34        0.03     0.02   0.330
  S498                      10.10       0.00       0.00       7.37       0.90       1.72       2.62        0.01     0.00   0.259
  S499                      10.10       0.00       0.00       9.04       0.21       0.82       1.03        0.02     0.01   0.102
  S500                      10.10       0.00       0.00       8.15       1.33       0.08       1.41        0.02     0.01   0.140
  S501                      10.10       0.00       0.00       7.30       0.90       1.79       2.69        0.02     0.01   0.266
  S502                      10.10       0.00       0.00       3.91       4.50       1.65       6.15        0.02     0.02   0.609
  S503                      10.10       0.00       0.00       7.56       0.90       1.53       2.43        0.04     0.02   0.240
  S504                      10.10       0.00       0.00       2.27       6.41       1.27       7.68        0.13     0.11   0.760
  S505                      10.10       0.00       0.00       8.81       0.21       1.06       1.27        0.01     0.00   0.126
  S506                      10.10       0.00       0.00       2.18       6.43       1.37       7.80        0.01     0.00   0.772
  S507                      10.10       0.00       0.00       8.03       0.90       1.06       1.96        0.03     0.02   0.194
  S508                      10.10       0.00       0.00       7.39       0.90       1.70       2.59        0.03     0.02   0.257
  S509                      10.10       0.00       0.00       7.47       0.46       2.11       2.57        0.04     0.03   0.254
  S510                      10.10       0.00       0.00       2.27       6.42       1.27       7.69        0.12     0.10   0.761
  S511                      10.10       0.00       0.00       6.02       2.96       1.05       4.01        0.06     0.04   0.397
  S512                      10.10       0.00       0.00       4.16       4.50       1.40       5.90        0.04     0.03   0.584
  S513                      10.10       0.00       0.00       8.25       0.46       1.34       1.79        0.03     0.02   0.178
  S514                      10.10       0.00       0.00       7.57       0.90       1.52       2.42        0.04     0.02   0.240
  S515                      10.10       0.00       0.00       5.55       2.96       1.53       4.49        0.07     0.05   0.444
  S516                      10.10       0.00       0.00       8.14       1.33       0.11       1.44        0.02     0.02   0.143
  S517                      10.10       0.00       0.00       7.09       0.46       2.50       2.96        0.01     0.01   0.293
  S518                      10.10       0.00       0.00       7.67       0.90       1.42       2.32        0.04     0.02   0.230
  S519                      10.10       0.00       0.00       2.25       6.42       1.29       7.71        0.06     0.06   0.764
  S520                      10.10       0.00       0.00       7.05       0.46       2.54       2.99        0.01     0.01   0.296
  S521                      10.10       0.00       0.00       8.15       1.33       0.08       1.41        0.02     0.01   0.140
  S522                      10.10       0.00       0.00       7.86       0.90       1.23       2.13        0.02     0.01   0.211
  S523                      10.10       0.00       0.00       7.55       0.46       2.03       2.49        0.05     0.03   0.247
  S524                      10.10       0.00       0.00       4.02       4.50       1.54       6.04        0.06     0.05   0.598
  S525                      10.10       0.00       0.00       7.62       0.90       1.47       2.36        0.05     0.03   0.234
  S526                      10.10       0.00       0.00       8.14       1.33       0.12       1.46        0.01     0.01   0.144
  S527                      10.10       0.00       0.00       6.65       0.90       2.45       3.34        0.00     0.00   0.331
  S528                      10.10       0.00       0.00       8.15       1.33       0.08       1.41        0.01     0.01   0.139
  S529                      10.10       0.00       0.00       7.13       0.90       1.96       2.86        0.00     0.00   0.283
  S530                      10.10       0.00       0.00       7.53       0.90       1.56       2.46        0.01     0.01   0.244
  S531                      10.10       0.00       0.00       7.31       0.90       1.78       2.68        0.02     0.01   0.265
  S532                      10.10       0.00       0.00       7.97       0.46       1.62       2.08        0.01     0.01   0.206
  S533                      10.10       0.00       0.00       7.83       0.90       1.26       2.16        0.01     0.01   0.214
  S534                      10.10       0.00       0.00       8.14       1.33       0.09       1.42        0.01     0.01   0.141
  S535                      10.10       0.00       0.00       4.10       4.50       1.46       5.95        0.03     0.03   0.589
  S536                      10.10       0.00       0.00       8.14       1.33       0.12       1.45        0.02     0.02   0.143
  S537                      10.10       0.00       0.00       1.06       8.22       0.63       8.85        0.14     0.11   0.876
  S538                      10.10       0.00       0.00       6.66       2.19       1.17       3.36        0.03     0.02   0.333
  S539                      10.10       0.00       0.00       6.03       2.20       1.79       3.99        0.01     0.01   0.395
  S540                      10.10       0.00       0.00       6.51       2.19       1.31       3.51        0.06     0.04   0.347
  S541                      10.10       0.00       0.00       7.53       0.90       1.56       2.46        0.03     0.02   0.243
  S542                      10.10       0.00       0.00       8.14       1.33       0.13       1.46        0.01     0.00   0.144
  S543                      10.10       0.00       0.00       8.14       1.33       0.11       1.44        0.01     0.01   0.143
  S544                      10.10       0.00       0.00       8.15       1.33       0.08       1.41        0.02     0.01   0.140
  S545                      10.10       0.00       0.00       7.23       0.90       1.86       2.76        0.00     0.00   0.273
  S546                      10.10       0.00       0.00       7.58       0.90       1.51       2.41        0.04     0.03   0.238
  S547                      10.10       0.00       0.00       5.50       2.20       2.33       4.53        0.00     0.00   0.449
  S548                      10.10       0.00       0.00       3.96       4.50       1.60       6.10        0.04     0.03   0.604
  S549                      10.10       0.00       0.00       4.36       4.49       1.19       5.69        0.06     0.04   0.563
  S550                      10.10       0.00       0.00       2.26       6.42       1.28       7.70        0.08     0.07   0.763
  S551                      10.10       0.00       0.00       7.08       0.90       2.01       2.91        0.01     0.01   0.288
  S552                      10.10       0.00       0.00       2.18       6.43       1.37       7.80        0.01     0.00   0.772
  S553                      10.10       0.00       0.00       8.14       1.33       0.09       1.42        0.01     0.01   0.140
  S554                      10.10       0.00       0.00       2.26       6.42       1.28       7.69        0.10     0.09   0.762
  S555                      10.10       0.00       0.00       7.22       0.90       1.87       2.77        0.01     0.01   0.274
  S556                      10.10       0.00       0.00       2.22       6.42       1.32       7.74        0.03     0.03   0.766
  S557                      10.10       0.00       0.00       8.15       1.33       0.05       1.38        0.02     0.01   0.137
  S558                      10.10       0.00       0.00       7.72       0.90       1.37       2.27        0.01     0.01   0.225
  S559                      10.10       0.00       0.00       5.64       2.20       2.19       4.39        0.00     0.00   0.434
  S560                      10.10       0.00       0.00       8.15       1.33       0.07       1.40        0.02     0.02   0.139
  S561                      10.10       0.00       0.00       8.32       0.46       1.27       1.72        0.03     0.02   0.170
  S562                      10.10       0.00       0.00       7.30       0.46       2.29       2.75        0.02     0.02   0.272
  S563                      10.10       0.00       0.00       6.66       2.19       1.17       3.36        0.06     0.04   0.333
  S564                      10.10       0.00       0.00       7.28       0.90       1.81       2.71        0.02     0.01   0.268
  S565                      10.10       0.00       0.00       7.09       0.46       2.49       2.95        0.01     0.01   0.292
  S566                      10.10       0.00       0.00       6.69       0.90       2.40       3.30        0.00     0.00   0.327
  S567                      10.10       0.00       0.00       8.89       0.21       0.98       1.19        0.01     0.01   0.118
  S568                      10.10       0.00       0.00       7.28       0.46       2.31       2.76        0.02     0.02   0.274
  S569                      10.10       0.00       0.00       8.15       1.33       0.05       1.38        0.02     0.01   0.137
  S570                      10.10       0.00       0.00       8.89       0.21       0.97       1.18        0.01     0.01   0.117
  S571                      10.10       0.00       0.00       7.28       0.46       2.31       2.76        0.02     0.02   0.274
  S572                      10.10       0.00       0.00       6.33       2.19       1.50       3.70        0.01     0.01   0.366
  S573                      10.10       0.00       0.00       4.20       4.49       1.35       5.85        0.06     0.04   0.579
  S574                      10.10       0.00       0.00       4.21       4.49       1.35       5.84        0.06     0.04   0.579
  S575                      10.10       0.00       0.00       2.27       6.41       1.27       7.68        0.12     0.11   0.761
  S576                      10.10       0.00       0.00       4.12       4.50       1.44       5.94        0.04     0.03   0.588
  S577                      10.10       0.00       0.00       5.16       2.96       1.91       4.87        0.01     0.01   0.483
  S578                      10.10       0.00       0.00       1.04       8.23       0.65       8.88        0.02     0.01   0.880
  S579                      10.10       0.00       0.00       7.90       0.90       1.19       2.09        0.02     0.01   0.206
  S580                      10.10       0.00       0.00       4.23       4.49       1.32       5.82        0.07     0.05   0.576
  S581                      10.10       0.00       0.00       7.51       0.90       1.58       2.48        0.03     0.02   0.246
  S582                      10.10       0.00       0.00       6.78       0.46       2.81       3.27        0.00     0.01   0.324
  S583                      10.10       0.00       0.00       1.04       8.23       0.66       8.89        0.01     0.01   0.880
  S584                      10.10       0.00       0.00       8.10       0.46       1.49       1.94        0.02     0.01   0.192
  S585                      10.10       0.00       0.00       1.06       8.22       0.63       8.85        0.09     0.07   0.877
  S586                      10.10       0.00       0.00       6.55       0.90       2.54       3.44        0.00     0.00   0.340
  S587                      10.10       0.00       0.00       7.98       0.90       1.11       2.01        0.03     0.02   0.199
  S588                      10.10       0.00       0.00       7.49       0.90       1.60       2.50        0.03     0.02   0.247
  S589                      10.10       0.00       0.00       8.87       0.21       1.00       1.21        0.01     0.01   0.120
  S590                      10.10       0.00       0.00       3.81       4.50       1.75       6.25        0.01     0.01   0.619
  S591                      10.10       0.00       0.00       7.91       0.90       1.18       2.07        0.03     0.01   0.205
  S592                      10.10       0.00       0.00       8.15       1.33       0.05       1.38        0.03     0.02   0.136
  S593                      10.10       0.00       0.00       6.71       2.19       1.12       3.31        0.02     0.01   0.328
  S594                      10.10       0.00       0.00       8.26       0.46       1.33       1.78        0.03     0.02   0.177
  S595                      10.10       0.00       0.00       8.52       0.21       1.35       1.56        0.01     0.00   0.154
  S596                      10.10       0.00       0.00       5.73       2.96       1.34       4.30        0.05     0.03   0.426
  S597                      10.10       0.00       0.00       5.82       2.96       1.26       4.21        0.06     0.04   0.417
[...]
  S848                      10.10       0.00       0.00       7.55       0.90       1.54       2.44        0.04     0.02   0.241
  S849                      10.10       0.00       0.00       4.05       4.50       1.51       6.00        0.07     0.06   0.595
  S850                      10.10       0.00       0.00       7.34       0.46       2.25       2.71        0.03     0.02   0.268
  S851                      10.10       0.00       0.00       7.93       0.90       1.17       2.06        0.03     0.01   0.204
  S852                      10.10       0.00       0.00       8.15       1.33       0.06       1.39        0.02     0.01   0.138
  S853                      10.10       0.00       0.00       6.67       2.19       1.15       3.35        0.02     0.01   0.331
  S854                      10.10       0.00       0.00       8.04       0.90       1.05       1.95        0.04     0.02   0.193
  S855                      10.10       0.00       0.00       8.02       0.46       1.57       2.02        0.02     0.01   0.200
  S856                      10.10       0.00       0.00       5.55       2.96       1.52       4.48        0.07     0.05   0.443
  S857                      10.10       0.00       0.00       6.03       2.96       1.05       4.00        0.06     0.04   0.396
  S858                      10.10       0.00       0.00       4.03       4.50       1.53       6.03        0.02     0.02   0.597
  S859                      10.10       0.00       0.00       6.33       2.19       1.49       3.69        0.02     0.01   0.365
  S860                      10.10       0.00       0.00       2.28       6.41       1.26       7.68        0.14     0.13   0.760
  S861                      10.10       0.00       0.00       6.48       2.19       1.35       3.54        0.03     0.02   0.351
  S862                      10.10       0.00       0.00       7.56       0.46       2.03       2.49        0.01     0.00   0.246
  S863                      10.10       0.00       0.00       4.12       4.50       1.44       5.93        0.11     0.08   0.588
  S864                      10.10       0.00       0.00       7.85       0.90       1.24       2.14        0.02     0.01   0.212
  S865                      10.10       0.00       0.00       3.96       4.50       1.60       6.09        0.01     0.01   0.603
  S866                      10.10       0.00       0.00       7.20       0.90       1.89       2.78        0.02     0.01   0.276
  S867                      10.10       0.00       0.00       2.25       6.42       1.29       7.71        0.08     0.07   0.763
  S868                      10.10       0.00       0.00       4.24       4.49       1.31       5.81        0.07     0.05   0.575
  S869                      10.10       0.00       0.00       2.27       6.42       1.27       7.69        0.11     0.10   0.761
  S870                      10.10       0.00       0.00       8.29       0.46       1.29       1.75        0.03     0.02   0.173
  S871                      10.10       0.00       0.00       8.23       0.21       1.64       1.85        0.00     0.00   0.183
  S872                      10.10       0.00       0.00       6.55       0.90       2.54       3.44        0.00     0.00   0.340
  S873                      10.10       0.00       0.00       7.97       0.90       1.12       2.01        0.03     0.02   0.199
  S874                      10.10       0.00       0.00       7.86       0.90       1.23       2.13        0.02     0.01   0.211
  S875                      10.10       0.00       0.00       8.15       1.33       0.08       1.41        0.02     0.01   0.140
  S876                      10.10       0.00       0.00       3.98       4.50       1.57       6.07        0.05     0.04   0.601
  S877                      10.10       0.00       0.00       7.85       0.90       1.24       2.14        0.02     0.01   0.212
  S878                      10.10       0.00       0.00       6.43       2.19       1.40       3.59        0.04     0.03   0.355
  S879                      10.10       0.00       0.00       4.12       4.50       1.44       5.94        0.11     0.08   0.588
  S880                      10.10       0.00       0.00       5.68       2.96       1.40       4.36        0.02     0.01   0.431
  S881                      10.10       0.00       0.00       6.52       2.19       1.31       3.50        0.02     0.01   0.347
  S882                      10.10       0.00       0.00       6.67       2.19       1.15       3.35        0.03     0.02   0.331
  S883                      10.10       0.00       0.00       7.30       0.90       1.79       2.69        0.02     0.01   0.266
  S884                      10.10       0.00       0.00       6.68       2.19       1.15       3.34        0.07     0.04   0.330
  S885                      10.10       0.00       0.00       7.48       0.90       1.61       2.51        0.01     0.01   0.249
  S886                      10.10       0.00       0.00       1.04       8.23       0.64       8.87        0.04     0.03   0.878
  S887                      10.10       0.00       0.00       7.43       0.46       2.16       2.61        0.03     0.03   0.259
  S888                      10.10       0.00       0.00       7.08       0.90       2.01       2.91        0.01     0.01   0.288
  S889                      10.10       0.00       0.00       2.20       6.43       1.34       7.77        0.01     0.01   0.769
  S890                      10.10       0.00       0.00       4.12       4.50       1.44       5.93        0.11     0.08   0.587
  S891                      10.10       0.00       0.00       8.11       1.34       0.25       1.58        0.00     0.00   0.157
  S892                      10.10       0.00       0.00       7.54       0.46       2.04       2.50        0.05     0.03   0.247
  S893                      10.10       0.00       0.00       4.13       4.50       1.42       5.92        0.12     0.09   0.586
  S894                      10.10       0.00       0.00       6.54       2.19       1.28       3.48        0.06     0.04   0.344
  S895                      10.10       0.00       0.00       8.92       0.21       0.95       1.16        0.01     0.01   0.114
  S896                      10.10       0.00       0.00       7.46       0.90       1.63       2.53        0.01     0.00   0.251
  S897                      10.10       0.00       0.00       4.45       4.49       1.11       5.60        0.09     0.06   0.554
  S898                      10.10       0.00       0.00       8.15       1.33       0.05       1.38        0.02     0.01   0.137
  S899                      10.10       0.00       0.00       7.49       0.46       2.10       2.56        0.04     0.03   0.253
  S900                      10.10       0.00       0.00       8.94       0.21       0.93       1.14        0.02     0.01   0.112
  S901                      10.10       0.00       0.00       6.68       2.19       1.15       3.34        0.03     0.02   0.330
  S902                      10.10       0.00       0.00       7.59       0.90       1.50       2.40        0.01     0.01   0.237
  S903                      10.10       0.00       0.00       6.46       2.19       1.37       3.56        0.03     0.02   0.353
  S904                      10.10       0.00       0.00       1.05       8.22       0.63       8.86        0.08     0.06   0.877
  S905                      10.10       0.00       0.00       6.47       2.19       1.35       3.55        0.05     0.03   0.351
  S906                      10.10       0.00       0.00       7.19       0.90       1.91       2.80        0.01     0.01   0.277
  S907                      10.10       0.00       0.00       2.24       6.42       1.31       7.73        0.05     0.04   0.765
  S908                      10.10       0.00       0.00       3.90       4.50       1.66       6.16        0.02     0.02   0.609
  S909                      10.10       0.00       0.00       7.42       0.90       1.67       2.56        0.03     0.02   0.254
  S910                      10.10       0.00       0.00       5.50       2.96       1.57       4.53        0.06     0.04   0.448
  S911                      10.10       0.00       0.00       8.14       1.33       0.08       1.42        0.02     0.01   0.140
  S912                      10.10       0.00       0.00       8.78       0.21       1.08       1.29        0.01     0.00   0.128
  S913                      10.10       0.00       0.00       8.14       1.33       0.09       1.42        0.01     0.00   0.141
  S914                      10.10       0.00       0.00       6.85       2.19       0.98       3.17        0.06     0.04   0.314
  S915                      10.10       0.00       0.00       6.44       0.46       3.15       3.61        0.00     0.00   0.357
  S916                      10.10       0.00       0.00       7.09       0.46       2.50       2.96        0.01     0.01   0.293
  S917                      10.10       0.00       0.00       7.49       0.90       1.60       2.50        0.03     0.02   0.247
  S918                      10.10       0.00       0.00       6.54       0.46       3.05       3.51        0.00     0.00   0.347
  S919                      10.10       0.00       0.00       8.15       1.33       0.06       1.39        0.02     0.01   0.137
  S920                      10.10       0.00       0.00       2.27       6.42       1.27       7.69        0.11     0.09   0.761
  S921                      10.10       0.00       0.00       8.84       0.21       1.03       1.24        0.01     0.01   0.123
  S922                      10.10       0.00       0.00       4.16       4.50       1.40       5.89        0.09     0.07   0.584
  S923                      10.10       0.00       0.00       7.74       0.90       1.35       2.24        0.02     0.01   0.222
  S924                      10.10       0.00       0.00       6.53       2.19       1.30       3.49        0.04     0.03   0.346
  S925                      10.10       0.00       0.00       7.91       0.90       1.18       2.07        0.02     0.01   0.205
  S926                      10.10       0.00       0.00       8.14       1.33       0.11       1.44        0.00     0.00   0.142
  S927                      10.10       0.00       0.00       2.24       6.42       1.30       7.72        0.06     0.05   0.764
  S928                      10.10       0.00       0.00       4.28       4.49       1.27       5.77        0.09     0.06   0.571
  S929                      10.10       0.00       0.00       7.80       0.46       1.79       2.25        0.01     0.01   0.222
  S930                      10.10       0.00       0.00       8.15       1.33       0.08       1.41        0.02     0.01   0.139
  S931                      10.10       0.00       0.00       8.90       0.21       0.97       1.18        0.01     0.01   0.117
  S932                      10.10       0.00       0.00       8.66       0.21       1.20       1.41        0.01     0.00   0.140
  S933                      10.10       0.00       0.00       8.06       0.90       1.03       1.93        0.04     0.02   0.191
  S934                      10.10       0.00       0.00       5.79       2.96       1.28       4.24        0.06     0.04   0.420
  S935                      10.10       0.00       0.00       5.66       2.96       1.41       4.37        0.04     0.03   0.433
  S936                      10.10       0.00       0.00       4.35       4.49       1.20       5.70        0.06     0.04   0.564
  S937                      10.10       0.00       0.00       3.78       4.50       1.77       6.28        0.01     0.01   0.622
  S938                      10.10       0.00       0.00       5.96       2.96       1.11       4.07        0.05     0.03   0.403
  S939                      10.10       0.00       0.00       7.94       0.90       1.15       2.05        0.03     0.02   0.203
  S940                      10.10       0.00       0.00       8.14       1.33       0.10       1.43        0.01     0.01   0.142
  S941                      10.10       0.00       0.00       6.54       2.19       1.29       3.48        0.01     0.01   0.345
  S942                      10.10       0.00       0.00       7.27       0.90       1.82       2.71        0.02     0.01   0.269
  S943                      10.10       0.00       0.00       2.28       6.41       1.26       7.68        0.14     0.12   0.760
  S944                      10.10       0.00       0.00       4.33       4.49       1.22       5.72        0.11     0.08   0.566
  S945                      10.10       0.00       0.00       6.96       2.19       0.87       3.06        0.04     0.02   0.303
  S946                      10.10       0.00       0.00       4.30       4.49       1.25       5.75        0.10     0.07   0.569
  S947                      10.10       0.00       0.00       8.97       0.21       0.89       1.10        0.02     0.01   0.109
  S948                      10.10       0.00       0.00       4.29       4.49       1.27       5.76        0.04     0.03   0.570
  S949                      10.10       0.00       0.00       7.92       0.90       1.17       2.07        0.03     0.01   0.205
  S950                      10.10       0.00       0.00       7.24       0.46       2.35       2.81        0.02     0.02   0.278
  S951                      10.10       0.00       0.00       7.96       0.46       1.63       2.08        0.01     0.01   0.206
  S952                      10.10       0.00       0.00       8.31       0.46       1.27       1.73        0.03     0.02   0.171
  S953                      10.10       0.00       0.00       8.65       0.21       1.21       1.42        0.01     0.00   0.141
  S954                      10.10       0.00       0.00       6.49       2.19       1.34       3.53        0.05     0.03   0.350
  S955                      10.10       0.00       0.00       4.27       4.49       1.28       5.78        0.08     0.06   0.572
  S956                      10.10       0.00       0.00       8.01       0.46       1.57       2.03        0.02     0.01   0.201
  S957                      10.10       0.00       0.00       6.03       2.20       1.80       4.00        0.00     0.00   0.396
  S958                      10.10       0.00       0.00       2.27       6.41       1.27       7.68        0.12     0.11   0.761
  S959                      10.10       0.00       0.00       1.05       8.22       0.64       8.86        0.07     0.05   0.877
  S960                      10.10       0.00       0.00       7.70       0.46       1.89       2.35        0.01     0.01   0.232
  S961                      10.10       0.00       0.00       5.58       2.96       1.49       4.45        0.08     0.06   0.441
  S962                      10.10       0.00       0.00       7.34       0.46       2.25       2.71        0.03     0.02   0.268
  S963                      10.10       0.00       0.00       7.11       0.90       1.98       2.88        0.01     0.01   0.285
  S964                      10.10       0.00       0.00       7.23       0.90       1.87       2.76        0.01     0.01   0.274
  S965                      10.10       0.00       0.00       7.94       0.46       1.65       2.10        0.01     0.01   0.208
  S966                      10.10       0.00       0.00       8.14       1.33       0.08       1.42        0.02     0.01   0.140
  S967                      10.10       0.00       0.00       6.80       2.19       1.03       3.22        0.05     0.03   0.319
  S968                      10.10       0.00       0.00       8.15       1.33       0.05       1.38        0.02     0.01   0.137
  S969                      10.10       0.00       0.00       7.72       0.90       1.37       2.27        0.04     0.03   0.225
  S970                      10.10       0.00       0.00       1.03       8.24       0.66       8.90        0.01     0.00   0.881
  S971                      10.10       0.00       0.00       7.36       0.46       2.23       2.69        0.03     0.02   0.266
  S972                      10.10       0.00       0.00       1.06       8.22       0.63       8.85        0.10     0.08   0.877
  S973                      10.10       0.00       0.00       7.98       0.90       1.11       2.00        0.03     0.02   0.198
  S974                      10.10       0.00       0.00       6.58       0.46       3.01       3.47        0.00     0.00   0.343
  S975                      10.10       0.00       0.00       3.88       4.50       1.68       6.18        0.02     0.02   0.611
  S976                      10.10       0.00       0.00       7.58       0.90       1.51       2.41        0.01     0.01   0.239
  S977                      10.10       0.00       0.00       8.89       0.21       0.98       1.19        0.01     0.01   0.117
  S978                      10.10       0.00       0.00       2.27       6.41       1.27       7.68        0.13     0.11   0.761
  S979                      10.10       0.00       0.00       6.79       2.19       1.04       3.23        0.05     0.03   0.320
  S980                      10.10       0.00       0.00       8.25       0.46       1.34       1.79        0.03     0.02   0.178
  S981                      10.10       0.00       0.00       7.27       0.46       2.31       2.77        0.02     0.02   0.274
  S982                      10.10       0.00       0.00       4.18       4.50       1.37       5.87        0.10     0.08   0.581
  S983                      10.10       0.00       0.00       7.95       0.90       1.14       2.04        0.03     0.02   0.202
  S984                      10.10       0.00       0.00       6.49       2.19       1.34       3.54        0.04     0.02   0.350
  S985                      10.10       0.00       0.00       7.91       0.21       1.96       2.17        0.00     0.00   0.215
  S986                      10.10       0.00       0.00       7.09       0.90       2.01       2.90        0.01     0.01   0.287
  S987                      10.10       0.00       0.00       6.28       2.19       1.55       3.74        0.03     0.02   0.371
  S988                      10.10       0.00       0.00       8.15       1.33       0.05       1.38        0.02     0.01   0.137
  S989                      10.10       0.00       0.00       8.12       0.46       1.47       1.93        0.02     0.01   0.191
  S990                      10.10       0.00       0.00       3.87       4.50       1.69       6.19        0.02     0.02   0.613
  S991                      10.10       0.00       0.00       8.12       1.33       0.20       1.53        0.00     0.00   0.152
  S992                      10.10       0.00       0.00       1.06       8.22       0.62       8.84        0.18     0.14   0.875
  S993                      10.10       0.00       0.00       6.94       0.90       2.15       3.05        0.01     0.00   0.302
  S994                      10.10       0.00       0.00       5.63       2.96       1.44       4.40        0.01     0.01   0.436
  S995                      10.10       0.00       0.00       7.53       0.90       1.56       2.46        0.03     0.02   0.243
  S996                      10.10       0.00       0.00       7.55       0.46       2.04       2.49        0.05     0.03   0.247
  S997                      10.10       0.00       0.00       7.91       0.90       1.18       2.08        0.02     0.01   0.206
  S998                      10.10       0.00       0.00       2.18       6.43       1.37       7.81        0.00     0.00   0.773
  S999                      10.10       0.00       0.00       5.43       2.96       1.64       4.60        0.03     0.02   0.456
  S1000                     10.10       0.00       0.00       7.73       0.90       1.36       2.26        0.02     0.01   0.224
  S1001                     10.10       0.00       0.00       1.04       8.23       0.65       8.88        0.02     0.02   0.879
  

  Analysis begun on:  Tue Apr 25 09:43:37 2023
  Analysis ended on:  Tue Apr 25 09:43:38 2023
  Total elapsed time: 00:00:01