
  EPA STORM WATER MANAGEMENT MODEL - VERSION 5.2 (Build 5.2.2)
  ------------------------------------------------------------

  WARNING 01: wet weather time step reduced to recording interval for Rain Gage Raingage2
  
  ****************
  Analysis Options
  ****************
  Flow Units ............... CMS
  Process Models:
    Rainfall/Runoff ........ YES
    RDII ................... NO
    Snowmelt ............... NO
    Groundwater ............ NO
    Flow Routing ........... YES
    Ponding Allowed ........ NO
    Water Quality .......... NO
  Infiltration Method ...... MODIFIED_GREEN_AMPT
  Flow Routing Method ...... KINWAVE
  Starting Date ............ 06/17/2022 00:00:00
  Ending Date .............. 06/17/2022 12:00:00
  Antecedent Dry Days ...... 0.0
  Report Time Step ......... 00:15:00
  Wet Time Step ............ 00:01:00
  Dry Time Step ............ 01:00:00
  Routing Time Step ........ 60.00 sec
  
  
  **************************        Volume         Depth
  Runoff Quantity Continuity     hectare-m            mm
  **************************     ---------       -------
  Total Precipitation ......         0.982        32.750
  Evaporation Loss .........         0.000         0.000
  Infiltration Loss ........         0.222         7.416
  Surface Runoff ...........         0.749        24.961
  Final Storage ............         0.012         0.403
  Continuity Error (%) .....        -0.091
  
  
  **************************        Volume        Volume
  Flow Routing Continuity        hectare-m      10^6 ltr
  **************************     ---------     ---------
  Dry Weather Inflow .......         0.000         0.000
  Wet Weather Inflow .......         0.749         7.488
  Groundwater Inflow .......         0.000         0.000
  RDII Inflow ..............         0.000         0.000
  External Inflow ..........         0.000         0.000
  External Outflow .........         0.466         4.658
  Flooding Loss ............         0.286         2.858
  Evaporation Loss .........         0.000         0.000
  Exfiltration Loss ........         0.000         0.000
  Initial Stored Volume ....         0.000         0.000
  Final Stored Volume ......         0.000         0.000
  Continuity Error (%) .....        -0.367
  
  
  ********************************
  Highest Flow Instability Indexes
  ********************************
  All links are stable.
  
  
  *************************
  Routing Time Step Summary
  *************************
  Minimum Time Step           :    60.00 sec
  Average Time Step           :    60.00 sec
  Maximum Time Step           :    60.00 sec
  % of Time in Steady State   :     0.00
  Average Iterations per Step :     1.46
  % of Steps Not Converging   :     0.00
  
  
  ***************************
  Subcatchment Runoff Summary
  ***************************
  
  ------------------------------------------------------------------------------------------------------------------------------
                            Total      Total      Total      Total     Imperv       Perv      Total       Total     Peak  Runoff
                           Precip      Runon       Evap      Infil     Runoff     Runoff     Runoff      Runoff   Runoff   Coeff
  Subcatchment                 mm         mm         mm         mm         mm         mm         mm    10^6 ltr      CMS
  ------------------------------------------------------------------------------------------------------------------------------
  S1                        32.75       0.00       0.00       6.59       4.89      21.29      26.18        0.26     0.33   0.799
  S2                        32.75       0.00       0.00       7.57       3.18      21.93      25.12        0.25     0.28   0.767
  S3                        32.75       0.00       0.00       8.78       4.83      17.41      22.24        0.22     0.19   0.679
  S4                        32.75       0.00       0.00       8.04       3.18      21.45      24.63        0.25     0.24   0.752
  S5                        32.75       0.00       0.00       5.80       7.99      18.80      26.79        0.27     0.33   0.818
  S6                        32.75       0.00       0.00       7.51       7.96      16.82      24.78        1.24     0.97   0.757
  S7                        32.75       0.00       0.00       7.24       7.97      17.33      25.30        1.26     1.11   0.772
  S10                       32.75       0.00       0.00       7.37       7.96      17.21      25.17        1.26     1.07   0.769
  S8                        32.75       0.00       0.00       7.47       7.96      16.94      24.90        1.25     1.00   0.760
  S9                        32.75       0.00       0.00       7.55       7.96      16.67      24.63        1.23     0.93   0.752
  
  
  ******************
  Node Depth Summary
  ******************
  
  ---------------------------------------------------------------------------------
                                 Average  Maximum  Maximum  Time of Max    Reported
                                   Depth    Depth      HGL   Occurrence   Max Depth
  Node                 Type       Meters   Meters   Meters  days hr:min      Meters
  ---------------------------------------------------------------------------------
  J2                   JUNCTION     0.03     0.60   147.21     0  00:16        0.57
  J3                   JUNCTION     0.12     2.40   148.92     0  00:08        2.40
  J1                   JUNCTION     0.03     2.50   149.30     0  00:14        2.50
  J0                   JUNCTION     0.01     0.35   147.35     0  00:17        0.34
  J4                   JUNCTION     0.09     2.50   149.20     0  00:12        2.50
  J5                   JUNCTION     0.13     2.30   149.30     0  00:07        2.30
  J8                   JUNCTION     0.08     2.30   149.20     0  00:08        2.30
  J6                   JUNCTION     0.11     2.10   149.30     0  00:07        2.10
  J9                   JUNCTION     0.01     0.35   147.45     0  00:17        0.34
  J7                   JUNCTION     0.07     1.90   149.30     0  00:10        1.90
  O1                   OUTFALL      0.09     1.00   147.20     0  00:09        1.00
  
  
  *******************
  Node Inflow Summary
  *******************
  
  -------------------------------------------------------------------------------------------------
                                  Maximum  Maximum                  Lateral       Total        Flow
                                  Lateral    Total  Time of Max      Inflow      Inflow     Balance
                                   Inflow   Inflow   Occurrence      Volume      Volume       Error
  Node                 Type           CMS      CMS  days hr:min    10^6 ltr    10^6 ltr     Percent
  -------------------------------------------------------------------------------------------------
  J2                   JUNCTION     0.191    0.689     0  00:15       0.222       0.722      -0.000
  J3                   JUNCTION     0.240    2.785     0  00:17       0.246        5.44       0.000
  J1                   JUNCTION     0.278    0.602     0  00:17       0.251       0.513       0.000
  J0                   JUNCTION     0.326    0.326     0  00:17       0.262       0.262       0.000
  J4                   JUNCTION     1.114    2.238     0  00:17        1.26        4.55      -0.000
  J5                   JUNCTION     1.075    1.580     0  00:17        1.26        2.87       0.000
  J8                   JUNCTION     0.967    1.296     0  00:17        1.24        1.51       0.000
  J6                   JUNCTION     0.931    1.436     0  00:17        1.23         2.3      -0.000
  J9                   JUNCTION     0.332    0.332     0  00:17       0.268       0.268       0.000
  J7                   JUNCTION     0.999    0.999     0  00:17        1.25        1.25       0.000
  O1                   OUTFALL      0.000    1.746     0  00:26           0        4.66       0.000
  
  
  *********************
  Node Flooding Summary
  *********************
  
  Flooding refers to all water that overflows a node, whether it ponds or not.
  --------------------------------------------------------------------------
                                                             Total   Maximum
                                 Maximum   Time of Max       Flood    Ponded
                        Hours       Rate    Occurrence      Volume    Volume
  Node                 Flooded       CMS   days hr:min    10^6 ltr   1000 m³
  --------------------------------------------------------------------------
  J3                      0.32     1.122      0  00:17       0.787     0.000
  J1                      0.07     0.110      0  00:17       0.017     0.000
  J4                      0.13     0.367      0  00:17       0.087     0.000
  J5                      0.48     0.961      0  00:17       0.736     0.000
  J8                      0.27     0.791      0  00:17       0.361     0.000
  J6                      0.43     0.931      0  00:17       0.688     0.000
  J7                      0.22     0.494      0  00:17       0.180     0.000
  
  
  ***********************
  Outfall Loading Summary
  ***********************
  
  -----------------------------------------------------------
                         Flow       Avg       Max       Total
                         Freq      Flow      Flow      Volume
  Outfall Node           Pcnt       CMS       CMS    10^6 ltr
  -----------------------------------------------------------
  O1                    95.56     0.113     1.746       4.658
  -----------------------------------------------------------
  System                95.56     0.113     1.746       4.658
  
  
  ********************
  Link Flow Summary
  ********************
  
  -----------------------------------------------------------------------------
                                 Maximum  Time of Max   Maximum    Max/    Max/
                                  |Flow|   Occurrence   |Veloc|    Full    Full
  Link                 Type          CMS  days hr:min     m/sec    Flow   Depth
  -----------------------------------------------------------------------------
  C3                   CONDUIT     0.681     0  00:16      1.70    0.68    0.61
  C4                   CONDUIT     1.746     0  00:26      2.45    1.05    1.00
  C2                   CONDUIT     0.527     0  00:15      2.09    1.07    1.00
  C1                   CONDUIT     0.324     0  00:17      1.93    0.64    0.58
  C5                   CONDUIT     1.911     0  00:13      2.78    1.02    1.00
  C8                   CONDUIT     0.516     0  00:22      2.12    1.02    1.00
  C9                   CONDUIT     0.520     0  00:24      2.09    1.03    1.00
  C10                  CONDUIT     0.329     0  00:17      1.94    0.65    0.59
  C6                   CONDUIT     0.650     0  00:35      2.53    1.05    1.00
  C7                   CONDUIT     0.540     0  00:31      2.08    1.07    1.00
  
  
  *************************
  Conduit Surcharge Summary
  *************************
  
  ----------------------------------------------------------------------------
                                                           Hours        Hours 
                         --------- Hours Full --------   Above Full   Capacity
  Conduit                Both Ends  Upstream  Dnstream   Normal Flow   Limited
  ----------------------------------------------------------------------------
  C4                          0.32      0.32      0.32      0.33         0.32
  C2                          0.07      0.07      0.07      0.05         0.07
  C5                          0.13      0.13      0.13      0.13         0.13
  C8                          0.22      0.22      0.22      0.05         0.22
  C9                          0.27      0.27      0.27      0.02         0.27
  C6                          0.48      0.48      0.48      0.03         0.48
  C7                          0.43      0.43      0.43      0.43         0.43
  

  Analysis begun on:  Tue Aug 29 05:54:28 2023
  Analysis ended on:  Tue Aug 29 05:54:28 2023
  Total elapsed time: < 1 sec