
  OWA STORM WATER MANAGEMENT MODEL - VERSION v5.2.3 (OWA 2023-03-28)
  ------------------------------------------------------------

  WARNING 01: wet weather time step reduced to recording interval for Rain Gage Raingage2
  
  ****************
  Analysis Options
  ****************
  Flow Units ............... CMS
  Process Models:
    Rainfall/Runoff ........ YES
    RDII ................... NO
    Snowmelt ............... NO
    Groundwater ............ NO
    Flow Routing ........... YES
    Ponding Allowed ........ NO
    Water Quality .......... NO
  Infiltration Method ...... MODIFIED_GREEN_AMPT
  Flow Routing Method ...... KINWAVE
  Starting Date ............ 06/17/2022 00:00:00
  Ending Date .............. 06/17/2022 12:00:00
  Antecedent Dry Days ...... 0.0
  Report Time Step ......... 00:15:00
  Wet Time Step ............ 00:01:00
  Dry Time Step ............ 01:00:00
  Routing Time Step ........ 60.00 sec
  
  
  **************************        Volume         Depth
  Runoff Quantity Continuity     hectare-m            mm
  **************************     ---------       -------
  Total Precipitation ......         1.626        10.100
  Evaporation Loss .........         0.000         0.000
  Infiltration Loss ........         1.217         7.556
  Surface Runoff ...........         0.391         2.430
  Final Storage ............         0.018         0.115
  Continuity Error (%) .....        -0.012
  
  
  **************************        Volume        Volume
  Flow Routing Continuity        hectare-m      10^6 ltr
  **************************     ---------     ---------
  Dry Weather Inflow .......         0.000         0.000
  Wet Weather Inflow .......         0.391         3.913
  Groundwater Inflow .......         0.000         0.000
  RDII Inflow ..............         0.000         0.000
  External Inflow ..........         0.000         0.000
  External Outflow .........         0.396         3.961
  Flooding Loss ............         0.005         0.053
  Evaporation Loss .........         0.000         0.000
  Exfiltration Loss ........         0.000         0.000
  Initial Stored Volume ....         0.000         0.000
  Final Stored Volume ......         0.001         0.006
  Continuity Error (%) .....        -2.740
  
  
  ********************************
  Highest Flow Instability Indexes
  ********************************
  All links are stable.
  
  
  *************************
  Routing Time Step Summary
  *************************
  Minimum Time Step           :    60.00 sec
  Average Time Step           :    60.00 sec
  Maximum Time Step           :    60.00 sec
  % of Time in Steady State   :     0.00
  Average Iterations per Step :     1.42
  % of Steps Not Converging   :     0.00
  
  
  ***************************
  Subcatchment Runoff Summary
  ***************************
  
  ------------------------------------------------------------------------------------------------------------------------------
                            Total      Total      Total      Total     Imperv       Perv      Total       Total     Peak  Runoff
                           Precip      Runon       Evap      Infil     Runoff     Runoff     Runoff      Runoff   Runoff   Coeff
  Subcatchment                 mm         mm         mm         mm         mm         mm         mm    10^6 ltr      CMS
  ------------------------------------------------------------------------------------------------------------------------------
  S1                        10.10       0.00       0.00       7.96       1.45       0.62       2.07        1.70     0.87   0.205
  S2                        10.10       0.00       0.00       8.55       0.89       0.49       1.38        0.23     0.12   0.137
  S3                        10.10       0.00       0.00       8.16       1.31       0.02       1.33        0.16     0.06   0.132
  S4                        10.10       0.00       0.00       8.44       0.89       0.65       1.54        0.12     0.07   0.153
  S5                        10.10       0.00       0.00       7.03       2.46       0.55       3.01        0.96     0.61   0.298
  21                        10.10       0.00       0.00       2.79       2.52       4.79       7.31        0.37     0.19   0.723
  22                        10.10       0.00       0.00       2.79       2.52       4.79       7.31        0.37     0.19   0.723
  
  
  ******************
  Node Depth Summary
  ******************
  
  ---------------------------------------------------------------------------------
                                 Average  Maximum  Maximum  Time of Max    Reported
                                   Depth    Depth      HGL   Occurrence   Max Depth
  Node                 Type       Meters   Meters   Meters  days hr:min      Meters
  ---------------------------------------------------------------------------------
  J2                   JUNCTION     0.11     2.71   149.32     0  00:26        0.69
  J3                   JUNCTION     0.09     0.76   147.28     0  00:27        0.66
  J1                   JUNCTION     0.11     2.50   149.30     0  00:28        2.50
  J0                   JUNCTION     0.10     2.30   149.30     0  00:22        0.74
  3                    JUNCTION     0.06     0.25   146.95     0  00:48        0.25
  4                    JUNCTION     0.04     0.16   147.16     0  00:49        0.15
  5                    JUNCTION     0.03     0.25   147.15     0  00:31        0.25
  6                    JUNCTION     0.04     0.17   147.37     0  00:36        0.16
  7                    JUNCTION     0.03     0.28   147.38     0  00:26        0.24
  8                    JUNCTION     0.04     0.19   147.59     0  00:26        0.18
  10                   JUNCTION     0.04     0.29   147.49     0  00:50        0.28
  11                   JUNCTION     0.04     0.30   147.70     0  00:41        0.30
  12                   JUNCTION     0.04     0.32   147.92     0  00:34        0.30
  13                   JUNCTION     0.04     0.34   148.14     0  00:28        0.34
  14                   JUNCTION     0.03     0.36   148.36     0  00:26        0.29
  15                   JUNCTION     0.05     0.31   147.31     0  00:58        0.31
  16                   JUNCTION     0.04     0.29   147.49     0  00:50        0.28
  17                   JUNCTION     0.04     0.30   147.70     0  00:41        0.30
  18                   JUNCTION     0.04     0.32   147.92     0  00:34        0.30
  19                   JUNCTION     0.04     0.34   148.14     0  00:28        0.34
  20                   JUNCTION     0.03     0.36   148.36     0  00:26        0.29
  O4                   OUTFALL      0.09     0.56   146.76     0  00:27        0.52
  9                    OUTFALL      0.05     0.31   146.81     0  01:03        0.30
  
  
  *******************
  Node Inflow Summary
  *******************
  
  -------------------------------------------------------------------------------------------------
                                  Maximum  Maximum                  Lateral       Total        Flow
                                  Lateral    Total  Time of Max      Inflow      Inflow     Balance
                                   Inflow   Inflow   Occurrence      Volume      Volume       Error
  Node                 Type           CMS      CMS  days hr:min    10^6 ltr    10^6 ltr     Percent
  -------------------------------------------------------------------------------------------------
  J2                   JUNCTION     0.675    1.040     0  00:26        1.09        2.78       0.000
  J3                   JUNCTION     0.000    1.019     0  00:27           0        3.19       0.000
  J1                   JUNCTION     0.000    0.752     0  00:30           0        1.69       0.000
  J0                   JUNCTION     0.866    0.866     0  00:26         1.7         1.7       0.000
  3                    JUNCTION     0.000    0.092     0  00:48           0       0.404      -0.000
  4                    JUNCTION     0.000    0.037     0  00:49           0       0.162      -0.000
  5                    JUNCTION     0.000    0.097     0  00:31           0       0.237       0.000
  6                    JUNCTION     0.000    0.043     0  00:36           0       0.161       0.000
  7                    JUNCTION     0.119    0.119     0  00:26       0.235       0.235       0.000
  8                    JUNCTION     0.055    0.055     0  00:26       0.159       0.159       0.000
  10                   JUNCTION     0.000    0.126     0  00:50           0       0.383       0.000
  11                   JUNCTION     0.000    0.140     0  00:41           0       0.381       0.000
  12                   JUNCTION     0.000    0.156     0  00:34           0       0.377       0.000
  13                   JUNCTION     0.000    0.178     0  00:28           0       0.373       0.000
  14                   JUNCTION     0.189    0.189     0  00:26       0.365       0.365       0.000
  15                   JUNCTION     0.000    0.231     0  00:58           0       0.776       0.000
  16                   JUNCTION     0.000    0.126     0  00:50           0       0.383       0.000
  17                   JUNCTION     0.000    0.140     0  00:41           0       0.381       0.000
  18                   JUNCTION     0.000    0.156     0  00:34           0       0.377       0.000
  19                   JUNCTION     0.000    0.178     0  00:28           0       0.373       0.000
  20                   JUNCTION     0.189    0.189     0  00:26       0.365       0.365       0.000
  O4                   OUTFALL      0.000    1.011     0  00:27           0        3.18       0.000
  9                    OUTFALL      0.000    0.225     0  01:03           0       0.777       0.000
  
  
  *********************
  Node Flooding Summary
  *********************
  
  Flooding refers to all water that overflows a node, whether it ponds or not.
  --------------------------------------------------------------------------
                                                             Total   Maximum
                                 Maximum   Time of Max       Flood    Ponded
                        Hours       Rate    Occurrence      Volume    Volume
  Node                 Flooded       CMS   days hr:min    10^6 ltr   1000 m³
  --------------------------------------------------------------------------
  J2                      0.02     0.042      0  00:26       0.003     0.000
  J1                      0.10     0.072      0  00:30       0.016     0.000
  J0                      0.12     0.169      0  00:26       0.034     0.000
  
  
  ***********************
  Outfall Loading Summary
  ***********************
  
  -----------------------------------------------------------
                         Flow       Avg       Max       Total
                         Freq      Flow      Flow      Volume
  Outfall Node           Pcnt       CMS       CMS    10^6 ltr
  -----------------------------------------------------------
  O4                    99.58     0.074     1.011       3.184
  9                     93.89     0.019     0.225       0.777
  -----------------------------------------------------------
  System                96.74     0.093     1.011       3.961
  
  
  ********************
  Link Flow Summary
  ********************
  
  -----------------------------------------------------------------------------
                                 Maximum  Time of Max   Maximum    Max/    Max/
                                  |Flow|   Occurrence   |Veloc|    Full    Full
  Link                 Type          CMS  days hr:min     m/sec    Flow   Depth
  -----------------------------------------------------------------------------
  C3                   CONDUIT     1.019     0  00:27      1.82    1.02    0.91
  C4                   CONDUIT     1.011     0  00:27      2.23    0.61    0.56
  C2                   CONDUIT     0.712     0  00:35      1.10    1.05    0.89
  C1                   CONDUIT     0.752     0  00:30      1.14    1.08    0.90
  3                    CONDUIT     0.089     0  00:57      0.61    0.13    0.25
  5                    CONDUIT     0.043     0  00:36      0.53    0.06    0.17
  6                    CONDUIT     0.082     0  00:40      0.64    0.12    0.23
  7                    CONDUIT     0.097     0  00:31      0.69    0.14    0.25
  8                    CONDUIT     0.034     0  01:01      0.56    0.04    0.14
  9                    CONDUIT     0.037     0  00:49      0.50    0.05    0.16
  11                   CONDUIT     0.178     0  00:28      0.85    0.26    0.33
  12                   CONDUIT     0.156     0  00:34      0.78    0.22    0.32
  13                   CONDUIT     0.140     0  00:41      0.74    0.20    0.30
  14                   CONDUIT     0.126     0  00:50      0.71    0.18    0.29
  15                   CONDUIT     0.116     0  00:58      0.69    0.17    0.27
  16                   CONDUIT     0.225     0  01:03      1.13    0.20    0.31
  17                   CONDUIT     0.178     0  00:28      0.85    0.26    0.33
  18                   CONDUIT     0.156     0  00:34      0.78    0.22    0.32
  19                   CONDUIT     0.140     0  00:41      0.74    0.20    0.30
  20                   CONDUIT     0.126     0  00:50      0.71    0.18    0.29
  21                   CONDUIT     0.116     0  00:58      0.69    0.17    0.27
  
  
  *************************
  Conduit Surcharge Summary
  *************************
  
  ----------------------------------------------------------------------------
                                                           Hours        Hours 
                         --------- Hours Full --------   Above Full   Capacity
  Conduit                Both Ends  Upstream  Dnstream   Normal Flow   Limited
  ----------------------------------------------------------------------------
  C3                          0.02      0.02      0.02      0.02         0.02
  C2                          0.10      0.10      0.10      0.08         0.10
  C1                          0.12      0.12      0.12      0.07         0.12
  

  Analysis begun on:  Wed Jul  5 06:17:20 2023
  Analysis ended on:  Wed Jul  5 06:17:21 2023
  Total elapsed time: 00:00:01